Strychnine 81
     RDKit          3D

 47 53  0  0  0  0  0  0  0  0999 V2000
   -1.1941   -1.7493   -1.2876 C   0  0  0  0  0  0  0  0  0  0  0  0
    0.0357   -2.6341   -1.1891 C   0  0  0  0  0  0  0  0  0  0  0  0
    0.3414   -2.7236    0.2462 N   0  0  0  0  0  0  0  0  0  0  0  0
    1.7825   -2.6892    0.5176 C   0  0  0  0  0  0  0  0  0  0  0  0
    2.3263   -1.2793    0.4999 C   0  0  0  0  0  0  0  0  0  0  0  0
    3.3860   -0.9272   -0.2487 C   0  0  0  0  0  0  0  0  0  0  0  0
    3.8763    0.4755   -0.3665 C   0  0  0  0  0  0  0  0  0  0  0  0
    2.8866    1.2299   -1.0522 O   0  0  0  0  0  0  0  0  0  0  0  0
    1.9215    1.8723   -0.2074 C   0  0  1  0  0  0  0  0  0  0  0  0
    1.1568    2.8519   -1.1342 C   0  0  0  0  0  0  0  0  0  0  0  0
   -0.3653    2.8287   -1.0376 C   0  0  0  0  0  0  0  0  0  0  0  0
   -1.0095    3.8651   -1.1884 O   0  0  0  0  0  0  0  0  0  0  0  0
   -0.9049    1.5804   -0.7863 N   0  0  0  0  0  0  0  0  0  0  0  0
   -0.0483    0.4099   -0.5409 C   0  0  1  0  0  0  0  0  0  0  0  0
    0.9657    0.8907    0.5066 C   0  0  1  0  0  0  0  0  0  0  0  0
    1.5609   -0.2633    1.3250 C   0  0  1  0  0  0  0  0  0  0  0  0
    0.3787   -0.9532    2.0236 C   0  0  0  0  0  0  0  0  0  0  0  0
   -0.4454   -1.6875    0.9668 C   0  0  1  0  0  0  0  0  0  0  0  0
   -1.0000   -0.7596   -0.1318 C   0  0  2  0  0  0  0  0  0  0  0  0
   -2.2828   -0.0140    0.1365 C   0  0  0  0  0  0  0  0  0  0  0  0
   -3.4595   -0.4961    0.6959 C   0  0  0  0  0  0  0  0  0  0  0  0
   -4.5508    0.3677    0.8066 C   0  0  0  0  0  0  0  0  0  0  0  0
   -4.4600    1.6922    0.3564 C   0  0  0  0  0  0  0  0  0  0  0  0
   -3.2755    2.1728   -0.2075 C   0  0  0  0  0  0  0  0  0  0  0  0
   -2.1984    1.3099   -0.3126 C   0  0  0  0  0  0  0  0  0  0  0  0
   -1.2764   -1.2657   -2.2673 H   0  0  0  0  0  0  0  0  0  0  0  0
   -2.0971   -2.3572   -1.1428 H   0  0  0  0  0  0  0  0  0  0  0  0
    0.8533   -2.1817   -1.7634 H   0  0  0  0  0  0  0  0  0  0  0  0
   -0.1526   -3.6273   -1.6091 H   0  0  0  0  0  0  0  0  0  0  0  0
    2.3150   -3.3400   -0.1878 H   0  0  0  0  0  0  0  0  0  0  0  0
    1.9703   -3.1283    1.5058 H   0  0  0  0  0  0  0  0  0  0  0  0
    3.9019   -1.6709   -0.8506 H   0  0  0  0  0  0  0  0  0  0  0  0
    4.7795    0.4828   -0.9857 H   0  0  0  0  0  0  0  0  0  0  0  0
    4.1440    0.9161    0.6004 H   0  0  0  0  0  0  0  0  0  0  0  0
    2.4654    2.4600    0.5436 H   0  0  0  0  0  0  0  0  0  0  0  0
    1.4812    3.8714   -0.8897 H   0  0  0  0  0  0  0  0  0  0  0  0
    1.4137    2.6868   -2.1882 H   0  0  0  0  0  0  0  0  0  0  0  0
    0.4658    0.1772   -1.4829 H   0  0  0  0  0  0  0  0  0  0  0  0
    0.4302    1.5130    1.2436 H   0  0  0  0  0  0  0  0  0  0  0  0
    2.2233    0.1421    2.1007 H   0  0  0  0  0  0  0  0  0  0  0  0
    0.7368   -1.6536    2.7894 H   0  0  0  0  0  0  0  0  0  0  0  0
   -0.2453   -0.2236    2.5548 H   0  0  0  0  0  0  0  0  0  0  0  0
   -1.2662   -2.2107    1.4726 H   0  0  0  0  0  0  0  0  0  0  0  0
   -3.5465   -1.5255    1.0299 H   0  0  0  0  0  0  0  0  0  0  0  0
   -5.4827    0.0100    1.2384 H   0  0  0  0  0  0  0  0  0  0  0  0
   -5.3186    2.3536    0.4460 H   0  0  0  0  0  0  0  0  0  0  0  0
   -3.2189    3.2012   -0.5482 H   0  0  0  0  0  0  0  0  0  0  0  0
  1  2  1  0
  2  3  1  0
  3  4  1  0
  4  5  1  0
  5  6  2  0
  6  7  1  0
  7  8  1  0
  8  9  1  0
  9 10  1  0
 10 11  1  0
 11 12  2  0
 11 13  1  0
 13 14  1  0
 14 15  1  0
 15 16  1  0
 16 17  1  0
 17 18  1  0
 18 19  1  0
 19 20  1  0
 20 21  2  0
 21 22  1  0
 22 23  2  0
 23 24  1  0
 24 25  2  0
 19  1  1  6
 18  3  1  0
 16  5  1  0
 15  9  1  0
 25 13  1  0
 19 14  1  0
 25 20  1  0
  1 26  1  0
  1 27  1  0
  2 28  1  0
  2 29  1  0
  4 30  1  0
  4 31  1  0
  6 32  1  0
  7 33  1  0
  7 34  1  0
  9 35  1  1
 10 36  1  0
 10 37  1  0
 14 38  1  6
 15 39  1  1
 16 40  1  1
 17 41  1  0
 17 42  1  0
 18 43  1  1
 21 44  1  0
 22 45  1  0
 23 46  1  0
 24 47  1  0
M  END
>  <Energy>  (1) 
57.62984920921601

>  <Real charge>  (1) 
0

>  <Mult>  (1) 
1

$$$$
Strychnine 113
     RDKit          3D

 47 53  0  0  0  0  0  0  0  0999 V2000
    0.9348   -1.1902    1.9279 C   0  0  0  0  0  0  0  0  0  0  0  0
   -0.3652   -1.9496    2.1362 C   0  0  0  0  0  0  0  0  0  0  0  0
   -0.6888   -2.5702    0.8429 N   0  0  0  0  0  0  0  0  0  0  0  0
   -2.1125   -2.4327    0.4887 C   0  0  0  0  0  0  0  0  0  0  0  0
   -2.4053   -1.0747   -0.1182 C   0  0  0  0  0  0  0  0  0  0  0  0
   -3.2664   -0.2165    0.4636 C   0  0  0  0  0  0  0  0  0  0  0  0
   -3.5716    1.2115    0.1132 C   0  0  0  0  0  0  0  0  0  0  0  0
   -2.9794    1.6856   -1.0836 O   0  0  0  0  0  0  0  0  0  0  0  0
   -1.5678    1.8884   -1.1152 C   0  0  1  0  0  0  0  0  0  0  0  0
   -1.0325    2.9754   -0.1564 C   0  0  0  0  0  0  0  0  0  0  0  0
    0.4930    2.9207   -0.0587 C   0  0  0  0  0  0  0  0  0  0  0  0
    1.1824    3.9270   -0.1862 O   0  0  0  0  0  0  0  0  0  0  0  0
    0.9605    1.6371    0.1836 N   0  0  0  0  0  0  0  0  0  0  0  0
    0.0282    0.5125    0.2509 C   0  0  1  0  0  0  0  0  0  0  0  0
   -0.7670    0.5758   -1.0629 C   0  0  1  0  0  0  0  0  0  0  0  0
   -1.5317   -0.7202   -1.3085 C   0  0  1  0  0  0  0  0  0  0  0  0
   -0.4494   -1.7969   -1.5163 C   0  0  0  0  0  0  0  0  0  0  0  0
    0.2566   -2.0435   -0.1819 C   0  0  1  0  0  0  0  0  0  0  0  0
    0.8772   -0.7770    0.4515 C   0  0  2  0  0  0  0  0  0  0  0  0
    2.2300   -0.2743    0.0080 C   0  0  0  0  0  0  0  0  0  0  0  0
    3.3786   -1.0042   -0.2599 C   0  0  0  0  0  0  0  0  0  0  0  0
    4.5437   -0.3102   -0.5955 C   0  0  0  0  0  0  0  0  0  0  0  0
    4.5525    1.0927   -0.6543 C   0  0  0  0  0  0  0  0  0  0  0  0
    3.3949    1.8266   -0.3842 C   0  0  0  0  0  0  0  0  0  0  0  0
    2.2467    1.1315   -0.0550 C   0  0  0  0  0  0  0  0  0  0  0  0
    1.0272   -0.3416    2.6149 H   0  0  0  0  0  0  0  0  0  0  0  0
    1.7842   -1.8607    2.1152 H   0  0  0  0  0  0  0  0  0  0  0  0
   -0.2566   -2.7131    2.9132 H   0  0  0  0  0  0  0  0  0  0  0  0
   -1.1407   -1.2506    2.4716 H   0  0  0  0  0  0  0  0  0  0  0  0
   -2.7391   -2.6340    1.3670 H   0  0  0  0  0  0  0  0  0  0  0  0
   -2.3838   -3.2132   -0.2335 H   0  0  0  0  0  0  0  0  0  0  0  0
   -3.8096   -0.5594    1.3442 H   0  0  0  0  0  0  0  0  0  0  0  0
   -4.6553    1.2905   -0.0284 H   0  0  0  0  0  0  0  0  0  0  0  0
   -3.3236    1.8659    0.9537 H   0  0  0  0  0  0  0  0  0  0  0  0
   -1.3987    2.2870   -2.1257 H   0  0  0  0  0  0  0  0  0  0  0  0
   -1.4396    2.8842    0.8552 H   0  0  0  0  0  0  0  0  0  0  0  0
   -1.3374    3.9631   -0.5210 H   0  0  0  0  0  0  0  0  0  0  0  0
   -0.6296    0.6841    1.1121 H   0  0  0  0  0  0  0  0  0  0  0  0
   -0.0361    0.6695   -1.8841 H   0  0  0  0  0  0  0  0  0  0  0  0
   -2.1398   -0.6541   -2.2183 H   0  0  0  0  0  0  0  0  0  0  0  0
    0.2769   -1.4858   -2.2777 H   0  0  0  0  0  0  0  0  0  0  0  0
   -0.8954   -2.7254   -1.8960 H   0  0  0  0  0  0  0  0  0  0  0  0
    1.0295   -2.8078   -0.3302 H   0  0  0  0  0  0  0  0  0  0  0  0
    3.3890   -2.0879   -0.1973 H   0  0  0  0  0  0  0  0  0  0  0  0
    5.4581   -0.8604   -0.8067 H   0  0  0  0  0  0  0  0  0  0  0  0
    5.4699    1.6153   -0.9158 H   0  0  0  0  0  0  0  0  0  0  0  0
    3.4090    2.9098   -0.4422 H   0  0  0  0  0  0  0  0  0  0  0  0
  1  2  1  0
  2  3  1  0
  3  4  1  0
  4  5  1  0
  5  6  2  0
  6  7  1  0
  7  8  1  0
  8  9  1  0
  9 10  1  0
 10 11  1  0
 11 12  2  0
 11 13  1  0
 13 14  1  0
 14 15  1  0
 15 16  1  0
 16 17  1  0
 17 18  1  0
 18 19  1  0
 19 20  1  0
 20 21  2  0
 21 22  1  0
 22 23  2  0
 23 24  1  0
 24 25  2  0
 19  1  1  1
 18  3  1  0
 16  5  1  0
 15  9  1  0
 25 13  1  0
 19 14  1  0
 25 20  1  0
  1 26  1  0
  1 27  1  0
  2 28  1  0
  2 29  1  0
  4 30  1  0
  4 31  1  0
  6 32  1  0
  7 33  1  0
  7 34  1  0
  9 35  1  6
 10 36  1  0
 10 37  1  0
 14 38  1  1
 15 39  1  6
 16 40  1  6
 17 41  1  0
 17 42  1  0
 18 43  1  6
 21 44  1  0
 22 45  1  0
 23 46  1  0
 24 47  1  0
M  END
>  <Energy>  (2) 
61.172158127608185

>  <Real charge>  (2) 
0

>  <Mult>  (2) 
1

$$$$
