%nprocshared=16
%mem=72GB
# B3LYP/def2tzvp opt freq

Do2_crest_conf_1

0 1
 C   0.78140000   0.66430000  -0.00010000
 C   0.78130000  -0.66440000   0.00010000
 C  -0.71800000  -0.77530000  -0.00010000
 C  -0.71790000   0.77530000   0.00010000
 H   1.54750000   1.41860000  -0.00020000
 H   1.54730000  -1.41870000   0.00010000
 H  -1.15180000  -1.23370000   0.88730000
 H  -1.15150000  -1.23330000  -0.88780000
 H  -1.15160000   1.23370000  -0.88750000
 H  -1.15140000   1.23360000   0.88780000

