%nprocshared=16
%mem=72GB
# B3LYP/def2tzvp opt freq

Do3_crest_conf_1

0 1
 C   0.66010000   1.04440000   0.03730000
 C  -0.66070000   1.04400000   0.03730000
 C  -1.22500000  -0.33960000  -0.08860000
 C   0.00040000  -1.24850000   0.11310000
 C   1.22510000  -0.33890000  -0.08870000
 H   1.29890000   1.90910000   0.09440000
 H  -1.30000000   1.90830000   0.09430000
 H  -2.00840000  -0.53220000   0.64590000
 H  -1.66580000  -0.47220000  -1.08110000
 H   0.00070000  -2.09320000  -0.57350000
 H   0.00050000  -1.64270000   1.12990000
 H   2.00870000  -0.53110000   0.64590000
 H   1.66600000  -0.47110000  -1.08110000

