%nprocshared=16
%mem=72GB
# B3LYP/def2tzvp opt freq

P2_crest_conf_1

0 1
 C  -0.63100000  -0.77070000   0.73060000
 C  -0.63110000   0.77090000   0.73030000
 C   0.79530000   1.12070000   0.24360000
 C   0.91550000   0.66310000  -1.18700000
 C   0.91560000  -0.66350000  -1.18680000
 C   0.79550000  -1.12050000   0.24410000
 C   1.58220000   0.00030000   0.94360000
 C  -1.78770000   0.76880000  -0.28430000
 C  -1.78760000  -0.76900000  -0.28410000
 H  -0.85080000  -1.26470000   1.67660000
 H  -0.85080000   1.26510000   1.67630000
 H   1.10250000   2.14500000   0.44260000
 H   0.95270000   1.32730000  -2.03170000
 H   0.95300000  -1.32810000  -2.03110000
 H   1.10290000  -2.14470000   0.44350000
 H   2.64020000   0.00040000   0.68480000
 H   1.46850000   0.00050000   2.02700000
 H  -1.54800000   1.22330000  -1.24290000
 H  -2.70540000   1.21270000   0.09680000
 H  -2.70510000  -1.21300000   0.09700000
 H  -1.54770000  -1.22360000  -1.24270000

