%nprocshared=16
%mem=72GB
# B3LYP/def2tzvp opt freq

P3_crest_conf_1

0 1
 C  -0.27790000   0.77290000  -0.87150000
 C   1.06170000   1.11580000  -0.16660000
 C   0.94740000   0.66330000   1.26420000
 C   0.94750000  -0.66330000   1.26420000
 C   1.06200000  -1.11570000  -0.16670000
 C   1.95250000   0.00020000  -0.72870000
 C  -0.27770000  -0.77300000  -0.87150000
 C  -1.55770000  -1.21370000  -0.15490000
 C  -2.03370000  -0.00000000   0.64800000
 C  -1.55790000   1.21360000  -0.15490000
 H  -0.24730000   1.17980000  -1.88460000
 H   1.39010000   2.14210000  -0.31730000
 H   0.83280000   1.32900000   2.10070000
 H   0.83300000  -1.32910000   2.10060000
 H   1.39050000  -2.14190000  -0.31740000
 H   2.95330000   0.00030000  -0.29790000
 H   2.02120000   0.00030000  -1.81580000
 H  -0.24710000  -1.18000000  -1.88460000
 H  -2.31330000  -1.48190000  -0.89570000
 H  -1.38820000  -2.08210000   0.48070000
 H  -3.11650000  -0.00010000   0.77460000
 H  -1.57900000   0.00000000   1.63740000
 H  -1.38850000   2.08220000   0.48050000
 H  -2.31340000   1.48160000  -0.89580000

