%nprocshared=16
%mem=72GB
# B3LYP/def2tzvp opt freq

P3_crest_conf_2

0 1
 C  -0.30330000   0.77500000  -0.73600000
 C   1.09950000   1.11820000  -0.17530000
 C   1.13250000   0.66320000   1.26080000
 C   1.13270000  -0.66320000   1.26080000
 C   1.09960000  -1.11800000  -0.17540000
 C   1.92680000   0.00010000  -0.82590000
 C  -0.30330000  -0.77510000  -0.73610000
 C  -1.51710000  -1.20010000   0.09520000
 C  -2.46060000  -0.00010000   0.00940000
 C  -1.51730000   1.20000000   0.09510000
 H  -0.38770000   1.16770000  -1.75190000
 H   1.41540000   2.14320000  -0.35660000
 H   1.11850000   1.32770000   2.10610000
 H   1.11890000  -1.32770000   2.10600000
 H   1.41570000  -2.14300000  -0.35680000
 H   2.96730000   0.00020000  -0.50240000
 H   1.88180000   0.00020000  -1.91430000
 H  -0.38780000  -1.16780000  -1.75200000
 H  -1.97580000  -2.11530000  -0.27800000
 H  -1.22650000  -1.35990000   1.13360000
 H  -2.97530000  -0.00020000  -0.95340000
 H  -3.21090000  -0.00010000   0.79960000
 H  -1.22670000   1.35990000   1.13350000
 H  -1.97600000   2.11500000  -0.27820000

