%nprocshared=16
%mem=72GB
# B3LYP/def2tzvp opt=(ts,calcfc,noeigen) freq

TS1_crest_conf_1

0 1
 C  -0.87130000  -0.25650000  -1.15240000
 C  -0.95570000   1.02910000  -0.70970000
 C  -0.95550000   1.02940000   0.70950000
 C  -0.87080000  -0.25610000   1.15260000
 C  -1.13740000  -1.17480000   0.00030000
 C   1.41060000  -0.52320000   0.66430000
 C   1.41030000  -0.52300000  -0.66470000
 C   1.90800000   0.71480000  -0.00000000
 H  -0.92040000  -0.57590000  -2.17860000
 H  -0.92970000   1.91260000  -1.32310000
 H  -0.92930000   1.91320000   1.32240000
 H  -0.91960000  -0.57490000   2.17890000
 H  -0.57490000  -2.10460000   0.00040000
 H  -2.20370000  -1.43430000   0.00060000
 H   1.48370000  -1.07820000   1.56610000
 H   1.48380000  -1.07790000  -1.56650000
 H   2.96950000   0.94660000  -0.00030000
 H   1.27710000   1.59960000   0.00040000

