%nprocshared=16
%mem=72GB
# B3LYP/def2tzvp opt=(ts,calcfc,noeigen) freq

TS2_crest_conf_1

0 1
 C  -0.60470000  -1.11430000   0.31930000
 C  -1.81970000  -0.66350000  -0.45600000
 C  -1.81980000   0.66350000  -0.45590000
 C  -0.60470000   1.11430000   0.31930000
 C  -0.53010000   0.00000000   1.36620000
 C   0.57040000  -0.76680000  -0.60510000
 C   0.57040000   0.76680000  -0.60510000
 C   1.97970000   0.76860000   0.01560000
 C   1.97970000  -0.76860000   0.01560000
 H  -0.61550000  -2.14070000   0.68080000
 H  -2.49390000  -1.32970000  -0.96260000
 H  -2.49410000   1.32970000  -0.96240000
 H  -0.61550000   2.14070000   0.68080000
 H  -1.39330000   0.00000000   2.03090000
 H   0.37930000  -0.00000000   1.96000000
 H   0.49500000  -1.27530000  -1.56610000
 H   0.49500000   1.27530000  -1.56610000
 H   2.04490000   1.23790000   0.99530000
 H   2.73800000   1.20770000  -0.62970000
 H   2.04480000  -1.23780000   0.99540000
 H   2.73800000  -1.20780000  -0.62950000

