%nprocshared=8
%mem=24GB
# wb97xd/6-31+G* opt freq

Pent_rdkit_conf_1

0 1
 C   2.52360000   0.00730000   0.17770000
 C   1.23620000   0.45550000  -0.49550000
 C   0.01220000  -0.19830000   0.14520000
 C  -1.27970000   0.25480000  -0.53430000
 C  -2.50000000  -0.39330000   0.10010000
 H   2.65140000  -1.07690000   0.09770000
 H   2.52580000   0.27650000   1.23880000
 H   3.38590000   0.48680000  -0.29610000
 H   1.15500000   1.54650000  -0.42590000
 H   1.27990000   0.20050000  -1.56070000
 H   0.10020000  -1.28950000   0.07690000
 H  -0.02460000   0.05620000   1.21160000
 H  -1.37460000   1.34470000  -0.46500000
 H  -1.24980000  -0.00120000  -1.59980000
 H  -2.57740000  -0.13050000   1.15990000
 H  -3.41240000  -0.05530000  -0.40120000
 H  -2.45180000  -1.48390000   0.01880000

