%nprocshared=8
%mem=24GB
# wb97xd/6-31+G* opt freq

Pent_rdkit_conf_2

0 1
 C  -2.12590000   0.46310000   0.00340000
 C  -1.22580000  -0.32750000   0.94030000
 C   0.03510000  -0.86930000   0.26370000
 C   0.99350000   0.22860000  -0.19950000
 C   2.27600000  -0.35880000  -0.76880000
 H  -2.39210000  -0.12840000  -0.87820000
 H  -3.05190000   0.73990000   0.51760000
 H  -1.64480000   1.38680000  -0.33100000
 H  -1.79690000  -1.17460000   1.33880000
 H  -0.95010000   0.29910000   1.79650000
 H   0.55420000  -1.52030000   0.97810000
 H  -0.24680000  -1.49890000  -0.58920000
 H   0.52010000   0.84760000  -0.96910000
 H   1.24200000   0.88590000   0.64160000
 H   2.80240000  -0.95520000  -0.01670000
 H   2.94630000   0.44170000  -1.09710000
 H   2.06470000  -1.00020000  -1.63040000

