%nprocshared=8
%mem=24GB
# wb97xd/6-31+G* opt freq

Pent_rdkit_conf_4

0 1
 C  -1.60270000   0.85750000   0.41020000
 C  -1.39510000  -0.39940000  -0.41630000
 C  -0.04840000  -1.09280000  -0.19090000
 C   1.17400000  -0.27440000  -0.61630000
 C   1.80520000   0.50510000   0.52830000
 H  -0.94810000   1.66650000   0.07390000
 H  -2.63460000   1.20850000   0.30580000
 H  -1.41530000   0.66910000   1.47180000
 H  -1.51340000  -0.15690000  -1.47900000
 H  -2.19150000  -1.11190000  -0.16860000
 H  -0.06020000  -2.01260000  -0.79000000
 H   0.04160000  -1.40990000   0.85490000
 H   1.93460000  -0.96550000  -1.00040000
 H   0.92240000   0.40330000  -1.43980000
 H   1.12080000   1.24520000   0.94850000
 H   2.69470000   1.03610000   0.17410000
 H   2.11600000  -0.16810000   1.33380000

