%nprocshared=8
%mem=24GB
# wb97xd/6-31+G* opt freq

Prop_rdkit_conf_1

0 1
 C   1.25250000   0.24460000  -0.41610000
 C   0.01110000  -0.60140000  -0.18880000
 C  -1.26090000   0.20920000  -0.37100000
 H   1.29320000   1.07950000   0.29090000
 H   2.15420000  -0.36050000  -0.27940000
 H   1.26830000   0.65330000  -1.43150000
 H   0.01040000  -1.44360000  -0.88950000
 H   0.03520000  -1.01980000   0.82350000
 H  -1.32460000   0.61680000  -1.38500000
 H  -1.29970000   1.04300000   0.33740000
 H  -2.13970000  -0.42100000  -0.20230000

