47
Strychnine_rdkit_conf_1                          Eopt  -1073.473612
C     0.388929    -1.842547     1.735569
C    -1.076906    -2.283961     1.718658
N    -1.356134    -2.619233     0.308087
C    -2.713709    -2.257889    -0.135051
C    -2.821257    -0.778419    -0.445325
C    -3.732174     0.027429     0.117211
C    -3.734670     1.524579    -0.074701
O    -2.556974     2.143968     0.459218
C    -1.422712     2.198141    -0.408470
C    -0.379091     3.059328     0.354762
C     1.065109     2.564048     0.336081
O     2.016594     3.330708     0.214715
N     1.208418     1.200536     0.491907
C     0.004543     0.330808     0.424442
C    -0.815313     0.828282    -0.781697
C    -1.736023    -0.253013    -1.386191
C    -0.816374    -1.414609    -1.809432
C    -0.258919    -2.082873    -0.550120
C     0.565260    -1.129899     0.368909
C     2.020778    -0.905548     0.016208
C     3.000500    -1.831768    -0.330229
C     4.316924    -1.396252    -0.533989
C     4.640239    -0.044979    -0.376885
C     3.670154     0.900505    -0.022286
C     2.360996     0.448882     0.163886
H     0.633989    -1.195182     2.583223
H     1.055910    -2.710766     1.774221
H    -1.725803    -1.465261     2.070441
H    -1.259109    -3.148369     2.368174
H    -3.419886    -2.544582     0.649572
H    -2.970253    -2.858766    -1.017138
H    -4.476774    -0.391790     0.792387
H    -4.569572     1.978616     0.465204
H    -3.841127     1.794914    -1.138176
H    -1.723249     2.708633    -1.337235
H    -0.363313     4.089479    -0.003781
H    -0.707774     3.089123     1.400955
H    -0.591853     0.466023     1.332648
H    -0.087981     1.055401    -1.575416
H    -2.219541     0.176455    -2.276157
H    -1.355573    -2.150004    -2.415401
H     0.010009    -1.045999    -2.427063
H     0.397904    -2.912960    -0.843755
H     2.752671    -2.884267    -0.439677
H     5.086749    -2.111251    -0.808147
H     5.663633     0.284502    -0.531663
H     3.910291     1.948043     0.097270
47
Strychnine_rdkit_conf_2                          Eopt  -1073.468255
C     0.451819    -1.884280     1.699687
C    -0.997620    -2.384344     1.729694
N    -1.345657    -2.672587     0.323372
C    -2.707323    -2.234528    -0.055199
C    -2.730325    -0.745276    -0.343470
C    -3.434091     0.106589     0.415842
C    -3.429788     1.614233     0.402699
O    -2.730362     2.248307    -0.659371
C    -1.304315     2.172184    -0.721734
C    -0.585597     2.899368     0.451127
C     0.897169     2.530893     0.528075
O     1.799123     3.362058     0.518681
N     1.115011     1.167137     0.587062
C    -0.042779     0.265339     0.384519
C    -0.741981     0.737255    -0.903444
C    -1.725710    -0.322579    -1.421429
C    -0.860775    -1.534737    -1.826503
C    -0.260626    -2.151908    -0.561357
C     0.566642    -1.168576     0.327253
C     2.009308    -0.869567    -0.033220
C     3.023984    -1.726452    -0.448507
C     4.320718    -1.222365    -0.623432
C     4.591568     0.125176    -0.367316
C     3.585977     1.002625     0.058253
C     2.298377     0.485877     0.211793
H     0.696504    -1.226518     2.539586
H     1.155285    -2.723779     1.720408
H    -1.113045    -3.279461     2.352596
H    -1.658810    -1.608625     2.147005
H    -3.385311    -2.490376     0.763756
H    -3.037476    -2.814339    -0.925478
H    -4.089569    -0.308128     1.184334
H    -4.459540     1.980352     0.309067
H    -3.071432     1.977012     1.381997
H    -1.092002     2.732364    -1.636643
H    -1.057742     2.625288     1.402416
H    -0.658154     3.982309     0.345436
H    -0.722243     0.349384     1.236040
H     0.054257     0.822676    -1.655703
H    -2.258427     0.070510    -2.295605
H    -0.061067    -1.219099    -2.505026
H    -1.443668    -2.290352    -2.362841
H     0.398659    -2.986321    -0.837523
H     2.818874    -2.777398    -0.634255
H     5.117084    -1.883031    -0.952545
H     5.600324     0.505393    -0.499999
H     3.784142     2.047803     0.255463
