7
-8.34779047
C         -0.47770        0.64841        0.00001
C         -0.47790       -0.64831       -0.00001
C          0.87499       -0.00007        0.00001
H         -0.99052        1.57781       -0.00008
H         -0.99066       -1.57776        0.00006
H          1.47092       -0.00010        0.90678
H          1.47088       -0.00018       -0.90686
