11
-13.71437836
C         -1.16590       -0.29527       -0.00007
C         -0.72254        0.96820        0.00001
C          0.72547        0.96607        0.00002
C          1.16498       -0.29876       -0.00002
C         -0.00186       -1.23033        0.00006
H         -2.18647       -0.63161       -0.00009
H         -1.32010        1.86248        0.00028
H          1.32582        1.85842       -0.00016
H          2.18447       -0.63822       -0.00012
H         -0.00265       -1.88038       -0.87774
H         -0.00289       -1.88040        0.87786
