47
Strychnine_rdkit_conf_1                          Eopt  -1073.473612
C     0.411503    -1.833576     1.709726
C    -1.032133    -2.303557     1.713518
N    -1.339456    -2.640069     0.315712
C    -2.695795    -2.240008    -0.074040
C    -2.772803    -0.771198    -0.421194
C    -3.675526     0.053048     0.138316
C    -3.704720     1.523239    -0.105659
O    -2.534386     2.086697     0.470226
C    -1.410595     2.185334    -0.415858
C    -0.385636     3.082407     0.324452
C     1.053981     2.579605     0.361189
O     1.988138     3.378320     0.325611
N     1.179202     1.204859     0.444661
C     0.002147     0.323541     0.401353
C    -0.803206     0.819878    -0.807645
C    -1.722359    -0.262998    -1.389277
C    -0.809004    -1.423740    -1.813613
C    -0.263214    -2.094577    -0.553750
C     0.544687    -1.140563     0.347724
C     1.998077    -0.903377     0.023871
C     2.969954    -1.837182    -0.312929
C     4.277062    -1.395313    -0.526381
C     4.600475    -0.037398    -0.397171
C     3.620685     0.898455    -0.056305
C     2.327392     0.451793     0.152676
H     0.633009    -1.176012     2.557664
H     1.080917    -2.701148     1.781289
H    -1.672217    -1.501644     2.101054
H    -1.166263    -3.175398     2.361750
H    -3.410132    -2.510196     0.714253
H    -3.003588    -2.826809    -0.948995
H    -4.402273    -0.332798     0.848588
H    -4.565312     1.951056     0.419305
H    -3.814190     1.777293    -1.165923
H    -1.738252     2.710279    -1.322662
H    -0.373957     4.061777    -0.170619
H    -0.689311     3.261433     1.363636
H    -0.566112     0.490610     1.326005
H    -0.094665     1.055250    -1.619899
H    -2.219274     0.123457    -2.288478
H    -1.361810    -2.146775    -2.427511
H     0.015506    -1.066399    -2.443182
H     0.357299    -2.946269    -0.858497
H     2.734085    -2.893666    -0.396573
H     5.054183    -2.109905    -0.787686
H     5.623205     0.292844    -0.563411
H     3.885073     1.946482     0.036569
47
Strychnine_rdkit_conf_2                          Eopt  -1073.468255
C     0.495819    -1.878198     1.674392
C    -0.925329    -2.414691     1.725307
N    -1.304964    -2.701547     0.333877
C    -2.667190    -2.241323     0.011667
C    -2.690969    -0.760823    -0.313568
C    -3.407263     0.109090     0.425800
C    -3.440485     1.609228     0.365840
O    -2.728728     2.192286    -0.711771
C    -1.303383     2.137564    -0.700007
C    -0.620087     2.900798     0.456710
C     0.866639     2.551969     0.544182
O     1.728150     3.421533     0.620509
N     1.089195     1.182635     0.527191
C    -0.029918     0.254919     0.367928
C    -0.751048     0.716848    -0.908401
C    -1.723983    -0.345407    -1.408113
C    -0.843103    -1.539101    -1.824023
C    -0.243030    -2.165517    -0.564108
C     0.568320    -1.181240     0.309547
C     2.004669    -0.855821    -0.022826
C     3.014622    -1.715577    -0.428560
C     4.296301    -1.192764    -0.617467
C     4.556389     0.169226    -0.396107
C     3.538213     1.034042     0.012564
C     2.273199     0.508349     0.195009
H     0.711492    -1.211234     2.516576
H     1.204913    -2.715245     1.726068
H    -0.983500    -3.321974     2.335149
H    -1.576424    -1.665650     2.191685
H    -3.352290    -2.493026     0.831328
H    -3.045361    -2.803291    -0.851777
H    -4.035591    -0.294680     1.219700
H    -4.486784     1.909816     0.240930
H    -3.112093     2.030796     1.320106
H    -1.028135     2.688317    -1.610773
H    -1.074811     2.689321     1.429277
H    -0.730694     3.979294     0.295280
H    -0.678811     0.371620     1.244930
H     0.015348     0.834757    -1.693321
H    -2.275879     0.006365    -2.287635
H    -0.044869    -1.222503    -2.507115
H    -1.432291    -2.278856    -2.381535
H     0.386845    -3.013551    -0.860112
H     2.829975    -2.774153    -0.582690
H     5.105730    -1.847866    -0.932300
H     5.561242     0.557360    -0.546900
H     3.746691     2.086788     0.171144
