quinine 1
     RDKit          3D

 48 51  0  0  0  0  0  0  0  0999 V2000
    4.7936    0.7828    3.0741 C   0  0  0  0  0  0  0  0  0  0  0  0
    3.7169    0.2128    2.3407 O   0  0  0  0  0  0  0  0  0  0  0  0
    3.6002    0.5805    1.0293 C   0  0  0  0  0  0  0  0  0  0  0  0
    2.5475   -0.0256    0.3381 C   0  0  0  0  0  0  0  0  0  0  0  0
    2.2788    0.2477   -1.0280 C   0  0  0  0  0  0  0  0  0  0  0  0
    1.2173   -0.3292   -1.7847 C   0  0  0  0  0  0  0  0  0  0  0  0
    1.0771    0.0456   -3.1290 C   0  0  0  0  0  0  0  0  0  0  0  0
    1.9681    0.9487   -3.6711 C   0  0  0  0  0  0  0  0  0  0  0  0
    2.9812    1.5050   -2.9831 N   0  0  0  0  0  0  0  0  0  0  0  0
    3.1271    1.1638   -1.6938 C   0  0  0  0  0  0  0  0  0  0  0  0
    4.1688    1.7542   -0.9930 C   0  0  0  0  0  0  0  0  0  0  0  0
    4.4144    1.4776    0.3553 C   0  0  0  0  0  0  0  0  0  0  0  0
    0.1919   -1.3062   -1.2248 C   0  0  2  0  0  0  0  0  0  0  0  0
   -0.8678   -0.6265   -0.2955 C   0  0  2  0  0  0  0  0  0  0  0  0
   -1.7891   -1.6612    0.4000 C   0  0  0  0  0  0  0  0  0  0  0  0
   -3.2295   -1.1159    0.4562 C   0  0  2  0  0  0  0  0  0  0  0  0
   -3.7154   -1.0454   -1.0027 C   0  0  0  0  0  0  0  0  0  0  0  0
   -2.7401   -0.1815   -1.8163 C   0  0  0  0  0  0  0  0  0  0  0  0
   -1.6954    0.4265   -0.9654 N   0  0  0  0  0  0  0  0  0  0  0  0
   -2.3611    1.2199    0.1024 C   0  0  0  0  0  0  0  0  0  0  0  0
   -3.2532    0.3308    1.0118 C   0  0  2  0  0  0  0  0  0  0  0  0
   -2.8392    0.3977    2.4633 C   0  0  0  0  0  0  0  0  0  0  0  0
   -3.6669    0.7268    3.4636 C   0  0  0  0  0  0  0  0  0  0  0  0
    0.8793   -2.3663   -0.5524 O   0  0  0  0  0  0  0  0  0  0  0  0
    5.7594    0.5020    2.6411 H   0  0  0  0  0  0  0  0  0  0  0  0
    4.6917    1.8709    3.1426 H   0  0  0  0  0  0  0  0  0  0  0  0
    4.7552    0.3806    4.0910 H   0  0  0  0  0  0  0  0  0  0  0  0
    1.9341   -0.7351    0.8869 H   0  0  0  0  0  0  0  0  0  0  0  0
    0.2767   -0.3483   -3.7462 H   0  0  0  0  0  0  0  0  0  0  0  0
    1.8855    1.2628   -4.7073 H   0  0  0  0  0  0  0  0  0  0  0  0
    4.8132    2.4582   -1.5153 H   0  0  0  0  0  0  0  0  0  0  0  0
    5.2459    1.9801    0.8362 H   0  0  0  0  0  0  0  0  0  0  0  0
   -0.3244   -1.7890   -2.0639 H   0  0  0  0  0  0  0  0  0  0  0  0
   -0.2985   -0.1337    0.5041 H   0  0  0  0  0  0  0  0  0  0  0  0
   -1.4164   -1.8711    1.4092 H   0  0  0  0  0  0  0  0  0  0  0  0
   -1.7957   -2.6158   -0.1402 H   0  0  0  0  0  0  0  0  0  0  0  0
   -3.8745   -1.7807    1.0414 H   0  0  0  0  0  0  0  0  0  0  0  0
   -4.7249   -0.6193   -1.0455 H   0  0  0  0  0  0  0  0  0  0  0  0
   -3.7713   -2.0520   -1.4341 H   0  0  0  0  0  0  0  0  0  0  0  0
   -2.2830   -0.7794   -2.6128 H   0  0  0  0  0  0  0  0  0  0  0  0
   -3.2947    0.6094   -2.3370 H   0  0  0  0  0  0  0  0  0  0  0  0
   -2.9770    2.0002   -0.3645 H   0  0  0  0  0  0  0  0  0  0  0  0
   -1.6026    1.7639    0.6803 H   0  0  0  0  0  0  0  0  0  0  0  0
   -4.2841    0.7040    0.9273 H   0  0  0  0  0  0  0  0  0  0  0  0
   -1.8008    0.1739    2.7020 H   0  0  0  0  0  0  0  0  0  0  0  0
   -3.3099    0.7643    4.4887 H   0  0  0  0  0  0  0  0  0  0  0  0
   -4.7115    0.9653    3.2896 H   0  0  0  0  0  0  0  0  0  0  0  0
    0.3030   -3.1472   -0.5687 H   0  0  0  0  0  0  0  0  0  0  0  0
  1  2  1  0
  2  3  1  0
  3  4  2  0
  4  5  1  0
  5  6  2  0
  6  7  1  0
  7  8  2  0
  8  9  1  0
  9 10  2  0
 10 11  1  0
 11 12  2  0
  6 13  1  0
 13 14  1  0
 14 15  1  0
 15 16  1  0
 16 17  1  0
 17 18  1  0
 18 19  1  0
 19 20  1  0
 20 21  1  0
 21 22  1  0
 22 23  2  3
 13 24  1  0
 12  3  1  0
 10  5  1  0
 19 14  1  0
 21 16  1  0
  1 25  1  0
  1 26  1  0
  1 27  1  0
  4 28  1  0
  7 29  1  0
  8 30  1  0
 11 31  1  0
 12 32  1  0
 13 33  1  6
 14 34  1  1
 15 35  1  0
 15 36  1  0
 16 37  1  1
 17 38  1  0
 17 39  1  0
 18 40  1  0
 18 41  1  0
 20 42  1  0
 20 43  1  0
 21 44  1  1
 22 45  1  0
 23 46  1  0
 23 47  1  0
 24 48  1  0
M  END
>  <Energy>  (1) 
118.35203502305929

>  <Real charge>  (1) 
0

>  <Mult>  (1) 
1

$$$$
