24
-28.55245233
C         -0.27786        0.77286       -0.87153
C          1.06170        1.11579       -0.16658
C          0.94741        0.66332        1.26423
C          0.94748       -0.66334        1.26419
C          1.06196       -1.11570       -0.16667
C          1.95252        0.00017       -0.72870
C         -0.27770       -0.77300       -0.87154
C         -1.55772       -1.21369       -0.15488
C         -2.03369       -0.00004        0.64804
C         -1.55788        1.21361       -0.15491
H         -0.24733        1.17984       -1.88461
H          1.39009        2.14206       -0.31731
H          0.83283        1.32899        2.10073
H          0.83300       -1.32914        2.10060
H          1.39053       -2.14191       -0.31741
H          2.95326        0.00034       -0.29794
H          2.02119        0.00026       -1.81580
H         -0.24714       -1.17997       -1.88463
H         -2.31326       -1.48189       -0.89571
H         -1.38820       -2.08213        0.48066
H         -3.11652       -0.00005        0.77459
H         -1.57903        0.00002        1.63742
H         -1.38855        2.08216        0.48055
H         -2.31341        1.48159       -0.89583
