mol_3 179
     RDKit          3D

 26 26  0  0  0  0  0  0  0  0999 V2000
    1.9112    1.3577   -0.3288 C   0  0  0  0  0  0  0  0  0  0  0  0
    1.2063    0.0045   -0.0935 C   0  0  0  0  0  0  0  0  0  0  0  0
    2.2447   -1.1212   -0.2671 C   0  0  0  0  0  0  0  0  0  0  0  0
    0.6419   -0.0312    1.3464 C   0  0  0  0  0  0  0  0  0  0  0  0
   -0.7602   -0.6084    1.2064 C   0  0  0  0  0  0  0  0  0  0  0  0
   -1.2130   -0.1437   -0.1857 C   0  0  0  0  0  0  0  0  0  0  0  0
   -1.7580    1.3001   -0.1053 C   0  0  0  0  0  0  0  0  0  0  0  0
   -2.3212   -1.0739   -0.7059 C   0  0  0  0  0  0  0  0  0  0  0  0
    0.0403   -0.3452   -0.9354 N   0  0  0  0  0  0  0  0  0  0  0  0
    0.0343    0.3328   -2.1914 O   0  0  0  0  0  1  0  0  0  0  0  0
    2.6888    1.5223    0.4267 H   0  0  0  0  0  0  0  0  0  0  0  0
    1.2153    2.2004   -0.2647 H   0  0  0  0  0  0  0  0  0  0  0  0
    2.4023    1.3977   -1.3078 H   0  0  0  0  0  0  0  0  0  0  0  0
    1.8138   -2.1049   -0.0449 H   0  0  0  0  0  0  0  0  0  0  0  0
    3.0961   -0.9780    0.4084 H   0  0  0  0  0  0  0  0  0  0  0  0
    2.6350   -1.1515   -1.2911 H   0  0  0  0  0  0  0  0  0  0  0  0
    0.5683    0.9776    1.7712 H   0  0  0  0  0  0  0  0  0  0  0  0
    1.2441   -0.6331    2.0357 H   0  0  0  0  0  0  0  0  0  0  0  0
   -1.4196   -0.2686    2.0122 H   0  0  0  0  0  0  0  0  0  0  0  0
   -0.7064   -1.7039    1.2631 H   0  0  0  0  0  0  0  0  0  0  0  0
   -2.6154    1.3482    0.5766 H   0  0  0  0  0  0  0  0  0  0  0  0
   -1.0146    2.0109    0.2670 H   0  0  0  0  0  0  0  0  0  0  0  0
   -2.1043    1.6583   -1.0812 H   0  0  0  0  0  0  0  0  0  0  0  0
   -2.6593   -0.7781   -1.7054 H   0  0  0  0  0  0  0  0  0  0  0  0
   -1.9790   -2.1139   -0.7660 H   0  0  0  0  0  0  0  0  0  0  0  0
   -3.1913   -1.0547   -0.0397 H   0  0  0  0  0  0  0  0  0  0  0  0
  1  2  1  0
  2  3  1  0
  2  4  1  0
  4  5  1  0
  5  6  1  0
  6  7  1  0
  6  8  1  0
  6  9  1  0
  9 10  1  0
  9  2  1  0
  1 11  1  0
  1 12  1  0
  1 13  1  0
  3 14  1  0
  3 15  1  0
  3 16  1  0
  4 17  1  0
  4 18  1  0
  5 19  1  0
  5 20  1  0
  7 21  1  0
  7 22  1  0
  7 23  1  0
  8 24  1  0
  8 25  1  0
  8 26  1  0
M  RAD  1  10   2
M  END
>  <Energy>  (1) 
29.19727096651331

>  <Real charge>  (1) 
0

>  <Mult>  (1) 
2

>  <SMILES>  (1) 
CC1(C)CCC(C)(C)N1[O]

$$$$
