mol_4 112
     RDKit          3D

 24 24  0  0  0  0  0  0  0  0999 V2000
    1.9573   -1.1836    0.0771 C   0  0  0  0  0  0  0  0  0  0  0  0
    1.1994    0.1484   -0.0908 C   0  0  0  0  0  0  0  0  0  0  0  0
    2.1467    1.2201   -0.6508 C   0  0  0  0  0  0  0  0  0  0  0  0
    0.6826    0.5773    1.2643 C   0  0  0  0  0  0  0  0  0  0  0  0
   -0.6512    0.5001    1.3128 C   0  0  0  0  0  0  0  0  0  0  0  0
   -1.2119    0.0089   -0.0031 C   0  0  0  0  0  0  0  0  0  0  0  0
   -2.3145    0.9619   -0.4885 C   0  0  0  0  0  0  0  0  0  0  0  0
   -1.7971   -1.4009    0.2137 C   0  0  0  0  0  0  0  0  0  0  0  0
   -0.0410    0.1383   -0.9062 N   0  0  0  0  0  0  0  0  0  0  0  0
   -0.0244   -0.8175   -1.9717 O   0  0  0  0  0  1  0  0  0  0  0  0
    2.7856   -1.0739    0.7883 H   0  0  0  0  0  0  0  0  0  0  0  0
    1.3113   -1.9816    0.4598 H   0  0  0  0  0  0  0  0  0  0  0  0
    2.3926   -1.5252   -0.8689 H   0  0  0  0  0  0  0  0  0  0  0  0
    1.6566    2.1992   -0.7216 H   0  0  0  0  0  0  0  0  0  0  0  0
    2.5026    0.9532   -1.6526 H   0  0  0  0  0  0  0  0  0  0  0  0
    3.0270    1.3449   -0.0088 H   0  0  0  0  0  0  0  0  0  0  0  0
    1.3203    0.8734    2.0809 H   0  0  0  0  0  0  0  0  0  0  0  0
   -1.2580    0.7242    2.1747 H   0  0  0  0  0  0  0  0  0  0  0  0
   -3.1545    0.9871    0.2161 H   0  0  0  0  0  0  0  0  0  0  0  0
   -1.9469    1.9906   -0.5905 H   0  0  0  0  0  0  0  0  0  0  0  0
   -2.7089    0.6515   -1.4630 H   0  0  0  0  0  0  0  0  0  0  0  0
   -1.0375   -2.1175    0.5452 H   0  0  0  0  0  0  0  0  0  0  0  0
   -2.2575   -1.7944   -0.6997 H   0  0  0  0  0  0  0  0  0  0  0  0
   -2.5788   -1.3844    0.9834 H   0  0  0  0  0  0  0  0  0  0  0  0
  1  2  1  0
  2  3  1  0
  2  4  1  0
  4  5  2  0
  5  6  1  0
  6  7  1  0
  6  8  1  0
  6  9  1  0
  9 10  1  0
  9  2  1  0
  1 11  1  0
  1 12  1  0
  1 13  1  0
  3 14  1  0
  3 15  1  0
  3 16  1  0
  4 17  1  0
  5 18  1  0
  7 19  1  0
  7 20  1  0
  7 21  1  0
  8 22  1  0
  8 23  1  0
  8 24  1  0
M  RAD  1  10   2
M  END
>  <Energy>  (1) 
33.89763005780517

>  <Real charge>  (1) 
0

>  <Mult>  (1) 
2

>  <SMILES>  (1) 
CC1(C)C=CC(C)(C)N1[O]

$$$$
