21
-25.35952963
C         -0.63097       -0.77073        0.73057
C         -0.63108        0.77091        0.73032
C          0.79532        1.12070        0.24364
C          0.91549        0.66306       -1.18704
C          0.91563       -0.66349       -1.18676
C          0.79551       -1.12054        0.24411
C          1.58223        0.00030        0.94356
C         -1.78772        0.76880       -0.28432
C         -1.78757       -0.76902       -0.28413
H         -0.85075       -1.26467        1.67665
H         -0.85081        1.26511        1.67630
H          1.10252        2.14503        0.44260
H          0.95268        1.32729       -2.03169
H          0.95296       -1.32808       -2.03114
H          1.10292       -2.14474        0.44355
H          2.64020        0.00036        0.68481
H          1.46845        0.00051        2.02701
H         -1.54805        1.22333       -1.24293
H         -2.70536        1.21268        0.09683
H         -2.70513       -1.21304        0.09702
H         -1.54773       -1.22363       -1.24265
