# Do1_crest_conf_1_DLPNO
%maxcore 16000
%pal nprocs 8 end
! DLPNO-CCSD(T) def2-tzvpp def2-tzvpp/C
%scf maxiter 500
end
% mdci
Density None
end
% elprop
Dipole False
end
* xyz 0 1
 C   0.49982000   0.64342200   0.00002400
 C   0.49979300  -0.64343800  -0.00003900
 C  -0.86123600   0.00001900   0.00001400
 H   1.04201600   1.57194600   0.00008800
 H   1.04192800  -1.57199700  -0.00012000
 H  -1.45711200   0.00003600  -0.91153500
 H  -1.45708700  -0.00000500   0.91157700
*