# Do2_crest_conf_1_DLPNO
%maxcore 16000
%pal nprocs 8 end
! DLPNO-CCSD(T) def2-tzvpp def2-tzvpp/C
%scf maxiter 500
end
% mdci
Density None
end
% elprop
Dipole False
end
* xyz 0 1
 C  -0.81224800   0.66744500  -0.00005900
 C  -0.81226600  -0.66742600   0.00004600
 C   0.69828000  -0.78466800   0.00005200
 C   0.69830000   0.78465100  -0.00004200
 H  -1.59860300   1.41172400  -0.00011500
 H  -1.59863900  -1.41168500   0.00009200
 H   1.14120200  -1.24324600  -0.88704900
 H   1.14119100  -1.24312500   0.88722300
 H   1.14121900   1.24321500   0.88706900
 H   1.14123900   1.24309800  -0.88720300
*