# Do3_crest_conf_1_DLPNO
%maxcore 16000
%pal nprocs 8 end
! DLPNO-CCSD(T) def2-tzvpp def2-tzvpp/C
%scf maxiter 500
end
% mdci
Density None
end
% elprop
Dipole False
end
* xyz 0 1
 C  -0.66458900   1.07303000  -0.04385900
 C   0.66462600   1.07300600  -0.04387400
 C   1.23368700  -0.31648300   0.09616500
 C  -0.00002000  -1.22626700  -0.12581100
 C  -1.23369900  -0.31644300   0.09615800
 H  -1.28482800   1.95901300  -0.09728600
 H   1.28489700   1.95896500  -0.09730700
 H   2.03558600  -0.52093400  -0.61780500
 H   1.66852900  -0.45326700   1.09357800
 H  -0.00003700  -2.10047300   0.52533300
 H  -0.00002500  -1.59027600  -1.15493900
 H  -2.03560200  -0.52086500  -0.61781900
 H  -1.66855000  -0.45321900   1.09356700
*