# P2_crest_conf_1_DLPNO
%maxcore 16000
%pal nprocs 8 end
! DLPNO-CCSD(T) def2-tzvpp def2-tzvpp/C
%scf maxiter 500
end
% mdci
Density None
end
% elprop
Dipole False
end
* xyz 0 1
 C  -0.62164900   0.78070800  -0.71703000
 C  -0.62165400  -0.78077400  -0.71695700
 C   0.82596000  -1.13089700  -0.22906200
 C   0.98032700  -0.66716700   1.20770300
 C   0.98033100   0.66728900   1.20763300
 C   0.82596900   1.13086900  -0.22918100
 C   1.60077500  -0.00005600  -0.95327000
 C  -1.82142300  -0.77725400   0.26904700
 C  -1.82140500   0.77728700   0.26899300
 H  -0.82060500   1.26131300  -1.67539400
 H  -0.82060000  -1.26146900  -1.67527800
 H   1.13554000  -2.15445400  -0.43379400
 H   0.99625300  -1.31713400   2.07174100
 H   0.99625800   1.31734800   2.07160300
 H   1.13555700   2.15440200  -0.43401900
 H   2.66717000  -0.00004900  -0.72610000
 H   1.45342300  -0.00011400  -2.03626600
 H  -1.62509500  -1.23724800   1.23782100
 H  -2.72813300  -1.22108500  -0.14261700
 H  -2.72811100   1.22111400  -0.14268200
 H  -1.62504300   1.23734000   1.23773100
*