# TS1_crest_conf_1_DLPNO
%maxcore 16000
%pal nprocs 8 end
! DLPNO-CCSD(T) def2-tzvpp def2-tzvpp/C
%scf maxiter 500
end
% mdci
Density None
end
% elprop
Dipole False
end
* xyz 0 1
 C  -0.85603500  -0.24863400  -1.15732600
 C  -1.00436600   1.05004700  -0.70532500
 C  -1.00423800   1.05019600   0.70533500
 C  -0.85584300  -0.24838500   1.15757100
 C  -1.14611900  -1.16773000   0.00024300
 C   1.38887300  -0.51625400   0.66916500
 C   1.38866300  -0.51644300  -0.66934900
 C   1.94547700   0.69022100  -0.00031500
 H  -0.92183800  -0.55303100  -2.19206300
 H  -1.01357700   1.93376000  -1.32749100
 H  -1.01332600   1.93403600   1.32732300
 H  -0.92145100  -0.55257200   2.19238100
 H  -0.60593700  -2.11214400   0.00030100
 H  -2.22191300  -1.39965300   0.00036000
 H   1.60238900  -1.14579400   1.51398700
 H   1.60223900  -1.14627400  -1.51394100
 H   3.01771200   0.88300100  -0.00045600
 H   1.33722900   1.60055900  -0.00039500
*