# TS2_crest_conf_1_man_DLPNO
%maxcore 16000
%pal nprocs 8 end
! DLPNO-CCSD(T) def2-tzvpp def2-tzvpp/C
%scf maxiter 500
end
% mdci
Density None
end
% elprop
Dipole False
end
* xyz 0 1
 C  -0.98250100  -1.15328300   0.40157600
 C  -1.91371800  -0.69948200  -0.53398400
 C  -1.91380100   0.69930400  -0.53406100
 C  -0.98262000   1.15333800   0.40142000
 C  -0.70320200   0.00009100   1.32371700
 C   0.87368100  -0.70068100  -0.76918900
 C   0.87377400   0.70078800  -0.76919200
 C   2.09868000   0.78016900   0.13700700
 C   2.09860300  -0.78022500   0.13699000
 H  -0.85614800  -2.18747600   0.69147500
 H  -2.44173900  -1.32295000  -1.24221600
 H  -2.44196700   1.32262800  -1.24231300
 H  -0.85658100   2.18757400   0.69130000
 H  -1.46908800   0.00014300   2.11395100
 H   0.26513300   0.00015400   1.81708900
 H   0.60098800  -1.39169300  -1.55240200
 H   0.60105600   1.39168700  -1.55249600
 H   1.97336700   1.27343600   1.10419200
 H   2.97923600   1.20602200  -0.34919300
 H   1.97323100  -1.27353100   1.10414800
 H   2.97913100  -1.20610500  -0.34923300
*