Pd_complex_0 27
     RDKit          3D

 18 18  0  0  0  0  0  0  0  0999 V2000
    0.6395    1.1187   -0.8249 I   0  0  0  0  0  0  0  0  0  0  0  0
    0.6275   -1.1225   -0.7197 Pd  0  0  0  0  0  4  0  0  0  0  0  0
    2.5516   -1.1082   -0.5656 Cl  0  0  0  0  0  0  0  0  0  0  0  0
    0.6397   -3.2770   -0.8281 P   0  0  0  0  0  4  0  0  0  0  0  0
   -1.3813   -1.1076   -0.5728 N   0  0  0  0  0  4  0  0  0  0  0  0
   -2.1381   -1.1678   -1.7054 C   0  0  0  0  0  0  0  0  0  0  0  0
   -3.5324   -1.1666   -1.6204 C   0  0  0  0  0  0  0  0  0  0  0  0
   -4.1405   -1.1050   -0.3659 C   0  0  0  0  0  0  0  0  0  0  0  0
   -3.3519   -1.0466    0.7840 C   0  0  0  0  0  0  0  0  0  0  0  0
   -1.9604   -1.0499    0.6600 C   0  0  0  0  0  0  0  0  0  0  0  0
   -0.5293   -3.7283   -1.4696 H   0  0  0  0  0  0  0  0  0  0  0  0
    1.7533   -3.7360   -1.5578 H   0  0  0  0  0  0  0  0  0  0  0  0
    0.6809   -3.8043    0.4763 H   0  0  0  0  0  0  0  0  0  0  0  0
   -1.6616   -1.2174   -2.6761 H   0  0  0  0  0  0  0  0  0  0  0  0
   -4.1349   -1.2136   -2.5183 H   0  0  0  0  0  0  0  0  0  0  0  0
   -5.2197   -1.1035   -0.2849 H   0  0  0  0  0  0  0  0  0  0  0  0
   -3.8135   -1.0000    1.7617 H   0  0  0  0  0  0  0  0  0  0  0  0
   -1.3444   -1.0069    1.5491 H   0  0  0  0  0  0  0  0  0  0  0  0
  1  2  1  0
  2  3  1  0
  2  4  1  0
  2  5  1  0
  5  6  2  0
  6  7  1  0
  7  8  2  0
  8  9  1  0
  9 10  2  0
 10  5  1  0
  4 11  1  0
  4 12  1  0
  4 13  1  0
  6 14  1  0
  7 15  1  0
  8 16  1  0
  9 17  1  0
 10 18  1  0
M  CHG  3   2  -1   4   1   5   1
M  RAD  1   2   2
M  END
>  <Energy>  (1) 
146.29160395090176

>  <Real charge>  (1) 
2

>  <Mult>  (1) 
1

$$$$
Pd_complex_0 117
     RDKit          3D

 18 18  0  0  0  0  0  0  0  0999 V2000
    0.6395    1.1172   -0.8283 I   0  0  0  0  0  0  0  0  0  0  0  0
    0.6273   -1.1228   -0.6115 Pd  0  0  0  0  0  4  0  0  0  0  0  0
    2.5549   -1.1081   -0.6172 Cl  0  0  0  0  0  0  0  0  0  0  0  0
    0.6396   -3.2755   -0.8322 P   0  0  0  0  0  4  0  0  0  0  0  0
   -1.3843   -1.1076   -0.6217 N   0  0  0  0  0  4  0  0  0  0  0  0
   -2.0563   -1.1403    0.5638 C   0  0  0  0  0  0  0  0  0  0  0  0
   -3.4532   -1.1407    0.5808 C   0  0  0  0  0  0  0  0  0  0  0  0
   -4.1513   -1.1101   -0.6270 C   0  0  0  0  0  0  0  0  0  0  0  0
   -3.4490   -1.0807   -1.8325 C   0  0  0  0  0  0  0  0  0  0  0  0
   -2.0523   -1.0812   -1.8105 C   0  0  0  0  0  0  0  0  0  0  0  0
   -0.5850   -3.7128   -1.3715 H   0  0  0  0  0  0  0  0  0  0  0  0
    1.6754   -3.6822   -1.6953 H   0  0  0  0  0  0  0  0  0  0  0  0
    0.8211   -3.8677    0.4317 H   0  0  0  0  0  0  0  0  0  0  0  0
   -1.5104   -1.1664    1.4983 H   0  0  0  0  0  0  0  0  0  0  0  0
   -3.9884   -1.1655    1.5212 H   0  0  0  0  0  0  0  0  0  0  0  0
   -5.2336   -1.1105   -0.6289 H   0  0  0  0  0  0  0  0  0  0  0  0
   -3.9809   -1.0589   -2.7748 H   0  0  0  0  0  0  0  0  0  0  0  0
   -1.5029   -1.0615   -2.7430 H   0  0  0  0  0  0  0  0  0  0  0  0
  1  2  1  0
  2  3  1  0
  2  4  1  0
  2  5  1  0
  5  6  2  0
  6  7  1  0
  7  8  2  0
  8  9  1  0
  9 10  2  0
 10  5  1  0
  4 11  1  0
  4 12  1  0
  4 13  1  0
  6 14  1  0
  7 15  1  0
  8 16  1  0
  9 17  1  0
 10 18  1  0
M  CHG  3   2  -1   4   1   5   1
M  RAD  1   2   2
M  END
>  <Energy>  (2) 
146.56052879364563

>  <Real charge>  (2) 
2

>  <Mult>  (2) 
1

$$$$
