test 94
     RDKit          3D

 11 10  0  0  0  0  0  0  0  0999 V2000
    1.2525    0.2446   -0.4161 C   0  0  0  0  0  0  0  0  0  0  0  0
    0.0111   -0.6014   -0.1888 C   0  0  0  0  0  0  0  0  0  0  0  0
   -1.2609    0.2092   -0.3710 C   0  0  0  0  0  0  0  0  0  0  0  0
    1.2932    1.0795    0.2909 H   0  0  0  0  0  0  0  0  0  0  0  0
    2.1542   -0.3605   -0.2794 H   0  0  0  0  0  0  0  0  0  0  0  0
    1.2683    0.6533   -1.4315 H   0  0  0  0  0  0  0  0  0  0  0  0
    0.0104   -1.4436   -0.8895 H   0  0  0  0  0  0  0  0  0  0  0  0
    0.0352   -1.0198    0.8235 H   0  0  0  0  0  0  0  0  0  0  0  0
   -1.3246    0.6168   -1.3850 H   0  0  0  0  0  0  0  0  0  0  0  0
   -1.2997    1.0430    0.3374 H   0  0  0  0  0  0  0  0  0  0  0  0
   -2.1397   -0.4210   -0.2023 H   0  0  0  0  0  0  0  0  0  0  0  0
  1  2  1  0
  2  3  1  0
  1  4  1  0
  1  5  1  0
  1  6  1  0
  2  7  1  0
  2  8  1  0
  3  9  1  0
  3 10  1  0
  3 11  1  0
M  END
>  <Energy>  (1) 
-4.89729338553839

>  <Real charge>  (1) 
0

>  <Mult>  (1) 
1

$$$$
