mol_482 148
     RDKit          3D

 15 15  0  0  0  0  0  0  0  0999 V2000
    3.8828   -0.8654   -0.6807 O   0  0  0  0  0  0  0  0  0  0  0  0
    2.7873    0.0018   -0.5733 N   0  0  0  0  0  0  0  0  0  0  0  0
    1.7025   -0.6992   -0.4699 C   0  0  0  0  0  0  0  0  0  0  0  0
    0.4239   -0.0596   -0.3452 C   0  0  0  0  0  0  0  0  0  0  0  0
    0.0507    1.2736   -0.3066 C   0  0  0  0  0  0  0  0  0  0  0  0
   -1.3605    1.3052   -0.1702 C   0  0  0  0  0  0  0  0  0  0  0  0
   -1.7501   -0.0121   -0.1352 C   0  0  0  0  0  0  0  0  0  0  0  0
   -0.6869   -0.8541   -0.2395 O   0  0  0  0  0  0  0  0  0  0  0  0
   -3.0372   -0.6203   -0.0121 N   0  0  0  0  0  4  0  0  0  0  0  0
   -3.0949   -1.8563   -0.0090 O   0  0  0  0  0  1  0  0  0  0  0  0
   -4.0008    0.1520    0.0824 O   0  0  0  0  0  0  0  0  0  0  0  0
    4.6359   -0.2485   -0.7522 H   0  0  0  0  0  0  0  0  0  0  0  0
    1.7247   -1.8036   -0.4742 H   0  0  0  0  0  0  0  0  0  0  0  0
    0.7283    2.1157   -0.3703 H   0  0  0  0  0  0  0  0  0  0  0  0
   -2.0056    2.1711   -0.1063 H   0  0  0  0  0  0  0  0  0  0  0  0
  1  2  1  0
  2  3  2  3
  3  4  1  0
  4  5  2  0
  5  6  1  0
  6  7  2  0
  7  8  1  0
  7  9  1  0
  9 10  1  0
  9 11  2  0
  8  4  1  0
  1 12  1  0
  3 13  1  0
  5 14  1  0
  6 15  1  0
M  CHG  2   9   1  10  -1
M  END
>  <Energy>  (1) 
73.15415634836401

>  <Real charge>  (1) 
0

>  <Mult>  (1) 
1

$$$$
