mol_1029 235
     RDKit          3D

 32 32  0  0  0  0  0  0  0  0999 V2000
   -2.0899   -1.7742    1.6362 O   0  0  0  0  0  0  0  0  0  0  0  0
   -1.4225   -0.5409    1.3439 C   0  0  0  0  0  0  0  0  0  0  0  0
   -1.0811   -0.5010   -0.1561 C   0  0  0  0  0  0  0  0  0  0  0  0
   -2.3095   -0.6614   -0.9643 N   0  0  0  0  0  0  0  0  0  0  0  0
   -3.2852    0.3103   -1.0893 C   0  0  0  0  0  0  0  0  0  0  0  0
   -3.1011    1.4666   -0.7045 O   0  0  0  0  0  0  0  0  0  0  0  0
   -4.5789   -0.1129   -1.7904 C   0  0  0  0  0  0  0  0  0  0  0  0
   -5.1662   -1.6467   -1.1117 Cl  0  0  0  0  0  0  0  0  0  0  0  0
   -4.2581   -0.2772   -3.5278 Cl  0  0  0  0  0  0  0  0  0  0  0  0
   -0.2284    0.7416   -0.5498 C   0  0  0  0  0  0  0  0  0  0  0  0
   -0.6746    1.9263    0.1119 O   0  0  0  0  0  0  0  0  0  0  0  0
    1.2503    0.5295   -0.2555 C   0  0  0  0  0  0  0  0  0  0  0  0
    1.8591    1.0555    0.8965 C   0  0  0  0  0  0  0  0  0  0  0  0
    3.2151    0.8376    1.1553 C   0  0  0  0  0  0  0  0  0  0  0  0
    3.9760    0.0845    0.2544 C   0  0  0  0  0  0  0  0  0  0  0  0
    3.3892   -0.4486   -0.8993 C   0  0  0  0  0  0  0  0  0  0  0  0
    2.0324   -0.2243   -1.1486 C   0  0  0  0  0  0  0  0  0  0  0  0
    5.4005   -0.1485    0.5211 N   0  0  0  0  0  4  0  0  0  0  0  0
    6.0434   -0.8035   -0.3122 O   0  0  0  0  0  1  0  0  0  0  0  0
    5.8769    0.3188    1.5655 O   0  0  0  0  0  0  0  0  0  0  0  0
   -2.2898   -1.7638    2.5893 H   0  0  0  0  0  0  0  0  0  0  0  0
   -0.5177   -0.4965    1.9568 H   0  0  0  0  0  0  0  0  0  0  0  0
   -2.0911    0.2763    1.6320 H   0  0  0  0  0  0  0  0  0  0  0  0
   -0.5178   -1.4115   -0.4000 H   0  0  0  0  0  0  0  0  0  0  0  0
   -2.6460   -1.6201   -1.0175 H   0  0  0  0  0  0  0  0  0  0  0  0
   -5.3482    0.6489   -1.6375 H   0  0  0  0  0  0  0  0  0  0  0  0
   -0.3231    0.9327   -1.6267 H   0  0  0  0  0  0  0  0  0  0  0  0
   -1.6047    2.0588   -0.1777 H   0  0  0  0  0  0  0  0  0  0  0  0
    1.2774    1.6527    1.5980 H   0  0  0  0  0  0  0  0  0  0  0  0
    3.6570    1.2642    2.0534 H   0  0  0  0  0  0  0  0  0  0  0  0
    3.9694   -1.0336   -1.6102 H   0  0  0  0  0  0  0  0  0  0  0  0
    1.5875   -0.6396   -2.0520 H   0  0  0  0  0  0  0  0  0  0  0  0
  1  2  1  0
  2  3  1  0
  3  4  1  0
  4  5  1  0
  5  6  2  0
  5  7  1  0
  7  8  1  0
  7  9  1  0
  3 10  1  0
 10 11  1  0
 10 12  1  0
 12 13  2  0
 13 14  1  0
 14 15  2  0
 15 16  1  0
 16 17  2  0
 15 18  1  0
 18 19  1  0
 18 20  2  0
 17 12  1  0
  1 21  1  0
  2 22  1  0
  2 23  1  0
  3 24  1  0
  4 25  1  0
  7 26  1  0
 10 27  1  0
 11 28  1  0
 13 29  1  0
 14 30  1  0
 16 31  1  0
 17 32  1  0
M  CHG  2  18   1  19  -1
M  END
>  <Energy>  (1) 
121.68526776181588

>  <Real charge>  (1) 
0

>  <Mult>  (1) 
1

$$$$
