mol_268 136
     RDKit          3D

 14 13  0  0  0  0  0  0  0  0999 V2000
   -1.9534   -0.2501    0.1336 C   0  0  0  0  0  0  0  0  0  0  0  0
   -0.6480    0.5099   -0.0398 C   0  0  0  0  0  0  0  0  0  0  0  0
    0.5543   -0.4335   -0.0384 C   0  0  0  0  0  0  0  0  0  0  0  0
    1.8521    0.3369   -0.2122 C   0  0  0  0  0  0  0  0  0  0  0  0
    3.3575   -0.8976   -0.2053 Br  0  0  0  0  0  0  0  0  0  0  0  0
   -1.9664   -0.7962    1.0822 H   0  0  0  0  0  0  0  0  0  0  0  0
   -2.7995    0.4441    0.1297 H   0  0  0  0  0  0  0  0  0  0  0  0
   -2.0998   -0.9688   -0.6790 H   0  0  0  0  0  0  0  0  0  0  0  0
   -0.5479    1.2418    0.7702 H   0  0  0  0  0  0  0  0  0  0  0  0
   -0.6806    1.0702   -0.9815 H   0  0  0  0  0  0  0  0  0  0  0  0
    0.5764   -0.9981    0.9023 H   0  0  0  0  0  0  0  0  0  0  0  0
    0.4440   -1.1693   -0.8450 H   0  0  0  0  0  0  0  0  0  0  0  0
    2.0227    1.0421    0.6058 H   0  0  0  0  0  0  0  0  0  0  0  0
    1.8884    0.8684   -1.1670 H   0  0  0  0  0  0  0  0  0  0  0  0
  1  2  1  0
  2  3  1  0
  3  4  1  0
  4  5  1  0
  1  6  1  0
  1  7  1  0
  1  8  1  0
  2  9  1  0
  2 10  1  0
  3 11  1  0
  3 12  1  0
  4 13  1  0
  4 14  1  0
M  END
>  <Energy>  (1) 
-2.352934835064523

>  <Real charge>  (1) 
0

>  <Mult>  (1) 
1

$$$$
mol_268 168
     RDKit          3D

 14 13  0  0  0  0  0  0  0  0999 V2000
    1.9224    0.1525    0.4682 C   0  0  0  0  0  0  0  0  0  0  0  0
    0.5232    0.5632    0.0349 C   0  0  0  0  0  0  0  0  0  0  0  0
   -0.4668   -0.5966    0.1748 C   0  0  0  0  0  0  0  0  0  0  0  0
   -1.8643   -0.2490   -0.3141 C   0  0  0  0  0  0  0  0  0  0  0  0
   -2.7806    0.9241    0.9401 Br  0  0  0  0  0  0  0  0  0  0  0  0
    2.2954   -0.6757   -0.1427 H   0  0  0  0  0  0  0  0  0  0  0  0
    1.9315   -0.1617    1.5167 H   0  0  0  0  0  0  0  0  0  0  0  0
    2.6147    0.9932    0.3592 H   0  0  0  0  0  0  0  0  0  0  0  0
    0.2040    1.4175    0.6413 H   0  0  0  0  0  0  0  0  0  0  0  0
    0.5559    0.8998   -1.0079 H   0  0  0  0  0  0  0  0  0  0  0  0
   -0.0983   -1.4403   -0.4221 H   0  0  0  0  0  0  0  0  0  0  0  0
   -0.4972   -0.9367    1.2172 H   0  0  0  0  0  0  0  0  0  0  0  0
   -1.8548    0.2563   -1.2836 H   0  0  0  0  0  0  0  0  0  0  0  0
   -2.4851   -1.1467   -0.3838 H   0  0  0  0  0  0  0  0  0  0  0  0
  1  2  1  0
  2  3  1  0
  3  4  1  0
  4  5  1  0
  1  6  1  0
  1  7  1  0
  1  8  1  0
  2  9  1  0
  2 10  1  0
  3 11  1  0
  3 12  1  0
  4 13  1  0
  4 14  1  0
M  END
>  <Energy>  (2) 
-1.9341341742596585

>  <Real charge>  (2) 
0

>  <Mult>  (2) 
1

$$$$
mol_268 4
     RDKit          3D

 14 13  0  0  0  0  0  0  0  0999 V2000
   -1.5208    0.4524    0.6003 C   0  0  0  0  0  0  0  0  0  0  0  0
   -0.8505   -0.5089   -0.3691 C   0  0  0  0  0  0  0  0  0  0  0  0
    0.6376   -0.7211   -0.0846 C   0  0  0  0  0  0  0  0  0  0  0  0
    1.4652    0.5378   -0.2855 C   0  0  0  0  0  0  0  0  0  0  0  0
    3.3527    0.1315   -0.0199 Br  0  0  0  0  0  0  0  0  0  0  0  0
   -2.5970    0.4939    0.4039 H   0  0  0  0  0  0  0  0  0  0  0  0
   -1.1260    1.4673    0.4963 H   0  0  0  0  0  0  0  0  0  0  0  0
   -1.3778    0.1292    1.6362 H   0  0  0  0  0  0  0  0  0  0  0  0
   -0.9861   -0.1463   -1.3947 H   0  0  0  0  0  0  0  0  0  0  0  0
   -1.3586   -1.4786   -0.3059 H   0  0  0  0  0  0  0  0  0  0  0  0
    0.7654   -1.0974    0.9382 H   0  0  0  0  0  0  0  0  0  0  0  0
    1.0037   -1.5119   -0.7519 H   0  0  0  0  0  0  0  0  0  0  0  0
    1.2201    1.3196    0.4375 H   0  0  0  0  0  0  0  0  0  0  0  0
    1.3721    0.9325   -1.3008 H   0  0  0  0  0  0  0  0  0  0  0  0
  1  2  1  0
  2  3  1  0
  3  4  1  0
  4  5  1  0
  1  6  1  0
  1  7  1  0
  1  8  1  0
  2  9  1  0
  2 10  1  0
  3 11  1  0
  3 12  1  0
  4 13  1  0
  4 14  1  0
M  END
>  <Energy>  (3) 
-1.623233783818181

>  <Real charge>  (3) 
0

>  <Mult>  (3) 
1

$$$$
