mol_1123 10
     RDKit          3D

 17 17  0  0  0  0  0  0  0  0999 V2000
    2.3790   -0.8941   -0.1273 C   0  0  0  0  0  0  0  0  0  0  0  0
    1.0657   -0.1781   -0.0017 C   0  0  0  0  0  0  0  0  0  0  0  0
    1.0302    1.2133    0.1645 C   0  0  0  0  0  0  0  0  0  0  0  0
   -0.1882    1.8916    0.2511 C   0  0  0  0  0  0  0  0  0  0  0  0
   -1.3893    1.1884    0.1621 C   0  0  0  0  0  0  0  0  0  0  0  0
   -1.3606   -0.2000   -0.0189 C   0  0  0  0  0  0  0  0  0  0  0  0
   -0.1398   -0.8852   -0.1063 C   0  0  0  0  0  0  0  0  0  0  0  0
   -2.6214   -0.9452   -0.1215 N   0  0  0  0  0  4  0  0  0  0  0  0
   -3.6793   -0.3040   -0.0408 O   0  0  0  0  0  1  0  0  0  0  0  0
   -2.5559   -2.1725   -0.2830 O   0  0  0  0  0  0  0  0  0  0  0  0
    3.1596   -0.3815    0.4445 H   0  0  0  0  0  0  0  0  0  0  0  0
    2.6813   -0.9388   -1.1781 H   0  0  0  0  0  0  0  0  0  0  0  0
    2.3064   -1.9139    0.2648 H   0  0  0  0  0  0  0  0  0  0  0  0
    1.9576    1.7804    0.2288 H   0  0  0  0  0  0  0  0  0  0  0  0
   -0.1988    2.9711    0.3855 H   0  0  0  0  0  0  0  0  0  0  0  0
   -2.3292    1.7319    0.2308 H   0  0  0  0  0  0  0  0  0  0  0  0
   -0.1174   -1.9636   -0.2544 H   0  0  0  0  0  0  0  0  0  0  0  0
  1  2  1  0
  2  3  2  0
  3  4  1  0
  4  5  2  0
  5  6  1  0
  6  7  2  0
  6  8  1  0
  8  9  1  0
  8 10  2  0
  7  2  1  0
  1 11  1  0
  1 12  1  0
  1 13  1  0
  3 14  1  0
  4 15  1  0
  5 16  1  0
  7 17  1  0
M  CHG  2   8   1   9  -1
M  END
>  <Energy>  (1) 
51.14360257866094

>  <Real charge>  (1) 
0

>  <Mult>  (1) 
1

$$$$
