mol_13 71
     RDKit          3D

 15 14  0  0  0  0  0  0  0  0999 V2000
   -1.8319    0.1576    1.0622 C   0  0  0  0  0  0  0  0  0  0  0  0
   -0.7011    0.6484    0.1716 C   0  0  0  0  0  0  0  0  0  0  0  0
    0.0129   -0.5149   -0.5171 C   0  0  0  0  0  0  0  0  0  0  0  0
    1.1203   -0.0258   -1.4058 C   0  0  0  0  0  0  0  0  0  0  0  0
    2.4119   -0.3336   -1.2342 C   0  0  0  0  0  0  0  0  0  0  0  0
   -2.3295    1.0048    1.5444 H   0  0  0  0  0  0  0  0  0  0  0  0
   -2.5804   -0.3895    0.4800 H   0  0  0  0  0  0  0  0  0  0  0  0
   -1.4539   -0.5057    1.8467 H   0  0  0  0  0  0  0  0  0  0  0  0
   -1.1093    1.3373   -0.5780 H   0  0  0  0  0  0  0  0  0  0  0  0
    0.0114    1.2197    0.7791 H   0  0  0  0  0  0  0  0  0  0  0  0
    0.4008   -1.2092    0.2383 H   0  0  0  0  0  0  0  0  0  0  0  0
   -0.7005   -1.0785   -1.1303 H   0  0  0  0  0  0  0  0  0  0  0  0
    0.8362    0.6095   -2.2425 H   0  0  0  0  0  0  0  0  0  0  0  0
    3.1683    0.0469   -1.9138 H   0  0  0  0  0  0  0  0  0  0  0  0
    2.7448   -0.9670   -0.4178 H   0  0  0  0  0  0  0  0  0  0  0  0
  1  2  1  0
  2  3  1  0
  3  4  1  0
  4  5  2  3
  1  6  1  0
  1  7  1  0
  1  8  1  0
  2  9  1  0
  2 10  1  0
  3 11  1  0
  3 12  1  0
  4 13  1  0
  5 14  1  0
  5 15  1  0
M  END
>  <Energy>  (1) 
5.242791685649845

>  <Real charge>  (1) 
0

>  <Mult>  (1) 
1

$$$$
mol_13 62
     RDKit          3D

 15 14  0  0  0  0  0  0  0  0999 V2000
   -1.6769   -0.5735   -0.2051 C   0  0  0  0  0  0  0  0  0  0  0  0
   -1.0669    0.8032    0.0187 C   0  0  0  0  0  0  0  0  0  0  0  0
    0.4229    0.8667   -0.3271 C   0  0  0  0  0  0  0  0  0  0  0  0
    1.2744    0.0378    0.5918 C   0  0  0  0  0  0  0  0  0  0  0  0
    2.0528   -0.9732    0.1859 C   0  0  0  0  0  0  0  0  0  0  0  0
   -1.2359   -1.3212    0.4611 H   0  0  0  0  0  0  0  0  0  0  0  0
   -1.5319   -0.9032   -1.2388 H   0  0  0  0  0  0  0  0  0  0  0  0
   -2.7532   -0.5441   -0.0072 H   0  0  0  0  0  0  0  0  0  0  0  0
   -1.2266    1.1058    1.0607 H   0  0  0  0  0  0  0  0  0  0  0  0
   -1.6018    1.5280   -0.6068 H   0  0  0  0  0  0  0  0  0  0  0  0
    0.7575    1.9082   -0.2491 H   0  0  0  0  0  0  0  0  0  0  0  0
    0.5700    0.5688   -1.3725 H   0  0  0  0  0  0  0  0  0  0  0  0
    1.2532    0.2959    1.6488 H   0  0  0  0  0  0  0  0  0  0  0  0
    2.1112   -1.2654   -0.8579 H   0  0  0  0  0  0  0  0  0  0  0  0
    2.6510   -1.5337    0.8977 H   0  0  0  0  0  0  0  0  0  0  0  0
  1  2  1  0
  2  3  1  0
  3  4  1  0
  4  5  2  3
  1  6  1  0
  1  7  1  0
  1  8  1  0
  2  9  1  0
  2 10  1  0
  3 11  1  0
  3 12  1  0
  4 13  1  0
  5 14  1  0
  5 15  1  0
M  END
>  <Energy>  (2) 
5.45306136117034

>  <Real charge>  (2) 
0

>  <Mult>  (2) 
1

$$$$
mol_13 54
     RDKit          3D

 15 14  0  0  0  0  0  0  0  0999 V2000
   -2.1721    0.1836    0.2276 C   0  0  0  0  0  0  0  0  0  0  0  0
   -0.6816    0.4895    0.2397 C   0  0  0  0  0  0  0  0  0  0  0  0
    0.1511   -0.7866    0.0882 C   0  0  0  0  0  0  0  0  0  0  0  0
    1.6473   -0.6169    0.0854 C   0  0  0  0  0  0  0  0  0  0  0  0
    2.3394    0.5240    0.2002 C   0  0  0  0  0  0  0  0  0  0  0  0
   -2.4674   -0.2922   -0.7130 H   0  0  0  0  0  0  0  0  0  0  0  0
   -2.7492    1.1071    0.3369 H   0  0  0  0  0  0  0  0  0  0  0  0
   -2.4421   -0.4851    1.0512 H   0  0  0  0  0  0  0  0  0  0  0  0
   -0.4320    0.9940    1.1807 H   0  0  0  0  0  0  0  0  0  0  0  0
   -0.4572    1.1862   -0.5768 H   0  0  0  0  0  0  0  0  0  0  0  0
   -0.1040   -1.4776    0.9015 H   0  0  0  0  0  0  0  0  0  0  0  0
   -0.1291   -1.2863   -0.8475 H   0  0  0  0  0  0  0  0  0  0  0  0
    2.2117   -1.5426   -0.0239 H   0  0  0  0  0  0  0  0  0  0  0  0
    3.4254    0.5127    0.1834 H   0  0  0  0  0  0  0  0  0  0  0  0
    1.8599    1.4902    0.3127 H   0  0  0  0  0  0  0  0  0  0  0  0
  1  2  1  0
  2  3  1  0
  3  4  1  0
  4  5  2  3
  1  6  1  0
  1  7  1  0
  1  8  1  0
  2  9  1  0
  2 10  1  0
  3 11  1  0
  3 12  1  0
  4 13  1  0
  5 14  1  0
  5 15  1  0
M  END
>  <Energy>  (3) 
5.568109351341332

>  <Real charge>  (3) 
0

>  <Mult>  (3) 
1

$$$$
mol_13 29
     RDKit          3D

 15 14  0  0  0  0  0  0  0  0999 V2000
   -1.9060    0.4652    0.2538 C   0  0  0  0  0  0  0  0  0  0  0  0
   -0.9826   -0.5682   -0.3760 C   0  0  0  0  0  0  0  0  0  0  0  0
    0.3226   -0.7752    0.3972 C   0  0  0  0  0  0  0  0  0  0  0  0
    1.2219    0.4283    0.3798 C   0  0  0  0  0  0  0  0  0  0  0  0
    2.4144    0.4642   -0.2282 C   0  0  0  0  0  0  0  0  0  0  0  0
   -2.1306    0.2087    1.2940 H   0  0  0  0  0  0  0  0  0  0  0  0
   -2.8519    0.5075   -0.2958 H   0  0  0  0  0  0  0  0  0  0  0  0
   -1.4646    1.4660    0.2316 H   0  0  0  0  0  0  0  0  0  0  0  0
   -0.7656   -0.2784   -1.4113 H   0  0  0  0  0  0  0  0  0  0  0  0
   -1.5150   -1.5260   -0.4204 H   0  0  0  0  0  0  0  0  0  0  0  0
    0.1008   -1.0331    1.4397 H   0  0  0  0  0  0  0  0  0  0  0  0
    0.8447   -1.6402   -0.0308 H   0  0  0  0  0  0  0  0  0  0  0  0
    0.8790    1.3126    0.9128 H   0  0  0  0  0  0  0  0  0  0  0  0
    3.0254    1.3612   -0.1994 H   0  0  0  0  0  0  0  0  0  0  0  0
    2.8074   -0.3926   -0.7667 H   0  0  0  0  0  0  0  0  0  0  0  0
  1  2  1  0
  2  3  1  0
  3  4  1  0
  4  5  2  3
  1  6  1  0
  1  7  1  0
  1  8  1  0
  2  9  1  0
  2 10  1  0
  3 11  1  0
  3 12  1  0
  4 13  1  0
  5 14  1  0
  5 15  1  0
M  END
>  <Energy>  (4) 
5.7559937922579305

>  <Real charge>  (4) 
0

>  <Mult>  (4) 
1

$$$$
