mol_347 373
     RDKit          3D

 37 39  0  0  0  0  0  0  0  0999 V2000
   -3.2817    0.0638    1.9437 C   0  0  0  0  0  0  0  0  0  0  0  0
   -1.7577    0.1693    1.8767 C   0  0  0  0  0  0  0  0  0  0  0  0
   -1.1677    0.1078    0.4358 C   0  0  0  0  0  0  0  0  0  0  0  0
   -1.7203    1.3078   -0.3330 C   0  0  0  0  0  0  0  0  0  0  0  0
   -1.5791    2.4748    0.0344 O   0  0  0  0  0  0  0  0  0  0  0  0
   -2.3991    1.0508   -1.4915 N   0  0  0  0  0  0  0  0  0  0  0  0
   -2.6400   -0.1657   -2.0431 C   0  0  0  0  0  0  0  0  0  0  0  0
   -3.3008   -0.2856   -3.0690 O   0  0  0  0  0  0  0  0  0  0  0  0
   -2.1331   -1.2446   -1.3948 N   0  0  0  0  0  0  0  0  0  0  0  0
   -1.5475   -1.2464   -0.1601 C   0  0  0  0  0  0  0  0  0  0  0  0
   -1.3448   -2.3204    0.4075 O   0  0  0  0  0  0  0  0  0  0  0  0
    0.3784    0.2160    0.3839 C   0  0  0  0  0  0  0  0  0  0  0  0
    1.1769    0.3811    1.4637 C   0  0  0  0  0  0  0  0  0  0  0  0
    2.6781    0.5137    1.3625 C   0  0  0  0  0  0  0  0  0  0  0  0
    3.2090    0.3466   -0.0746 C   0  0  0  0  0  0  0  0  0  0  0  0
    3.0943   -1.1117   -0.5530 C   0  0  0  0  0  0  0  0  0  0  0  0
    1.7086   -1.2225   -1.2064 C   0  0  0  0  0  0  0  0  0  0  0  0
    1.0534    0.1522   -0.9943 C   0  0  0  0  0  0  0  0  0  0  0  0
    2.2744    1.0818   -1.0339 C   0  0  0  0  0  0  0  0  0  0  0  0
   -3.6403   -0.8833    1.5303 H   0  0  0  0  0  0  0  0  0  0  0  0
   -3.6101    0.1143    2.9872 H   0  0  0  0  0  0  0  0  0  0  0  0
   -3.7670    0.8829    1.4050 H   0  0  0  0  0  0  0  0  0  0  0  0
   -1.4727    1.1121    2.3621 H   0  0  0  0  0  0  0  0  0  0  0  0
   -1.3424   -0.6410    2.4902 H   0  0  0  0  0  0  0  0  0  0  0  0
   -2.7700    1.8521   -1.9831 H   0  0  0  0  0  0  0  0  0  0  0  0
   -2.3804   -2.1490   -1.7724 H   0  0  0  0  0  0  0  0  0  0  0  0
    0.7763    0.4456    2.4711 H   0  0  0  0  0  0  0  0  0  0  0  0
    3.1546   -0.2149    2.0282 H   0  0  0  0  0  0  0  0  0  0  0  0
    2.9503    1.5111    1.7292 H   0  0  0  0  0  0  0  0  0  0  0  0
    4.2419    0.7036   -0.1355 H   0  0  0  0  0  0  0  0  0  0  0  0
    3.8661   -1.3264   -1.3017 H   0  0  0  0  0  0  0  0  0  0  0  0
    3.2197   -1.8325    0.2616 H   0  0  0  0  0  0  0  0  0  0  0  0
    1.8275   -1.4179   -2.2792 H   0  0  0  0  0  0  0  0  0  0  0  0
    1.1341   -2.0537   -0.7871 H   0  0  0  0  0  0  0  0  0  0  0  0
    0.3602    0.4004   -1.8015 H   0  0  0  0  0  0  0  0  0  0  0  0
    2.0490    2.1057   -0.7158 H   0  0  0  0  0  0  0  0  0  0  0  0
    2.7020    1.1222   -2.0432 H   0  0  0  0  0  0  0  0  0  0  0  0
  1  2  1  0
  2  3  1  0
  3  4  1  0
  4  5  2  0
  4  6  1  0
  6  7  1  0
  7  8  2  0
  7  9  1  0
  9 10  1  0
 10 11  2  0
  3 12  1  0
 12 13  2  0
 13 14  1  0
 14 15  1  0
 15 16  1  0
 16 17  1  0
 17 18  1  0
 18 19  1  0
 10  3  1  0
 18 12  1  0
 19 15  1  0
  1 20  1  0
  1 21  1  0
  1 22  1  0
  2 23  1  0
  2 24  1  0
  6 25  1  0
  9 26  1  0
 13 27  1  0
 14 28  1  0
 14 29  1  0
 15 30  1  0
 16 31  1  0
 16 32  1  0
 17 33  1  0
 17 34  1  0
 18 35  1  0
 19 36  1  0
 19 37  1  0
M  END
>  <Energy>  (1) 
-69.09202936903434

>  <Real charge>  (1) 
0

>  <Mult>  (1) 
1

$$$$
mol_347 218
     RDKit          3D

 37 39  0  0  0  0  0  0  0  0999 V2000
   -3.1038   -2.1127    0.1716 C   0  0  0  0  0  0  0  0  0  0  0  0
   -1.6062   -1.8171    0.2540 C   0  0  0  0  0  0  0  0  0  0  0  0
   -1.2416   -0.3072    0.2496 C   0  0  0  0  0  0  0  0  0  0  0  0
   -1.8997    0.3801    1.4571 C   0  0  0  0  0  0  0  0  0  0  0  0
   -2.1199   -0.1763    2.5329 O   0  0  0  0  0  0  0  0  0  0  0  0
   -2.1937    1.7095    1.3179 N   0  0  0  0  0  0  0  0  0  0  0  0
   -2.3849    2.3444    0.1337 C   0  0  0  0  0  0  0  0  0  0  0  0
   -2.9848    3.4126    0.0710 O   0  0  0  0  0  0  0  0  0  0  0  0
   -1.9649    1.7031   -0.9858 N   0  0  0  0  0  0  0  0  0  0  0  0
   -1.7025    0.3626   -1.0507 C   0  0  0  0  0  0  0  0  0  0  0  0
   -1.7998   -0.2218   -2.1294 O   0  0  0  0  0  0  0  0  0  0  0  0
    0.3067   -0.1709    0.3275 C   0  0  0  0  0  0  0  0  0  0  0  0
    0.9927    0.2535    1.4148 C   0  0  0  0  0  0  0  0  0  0  0  0
    2.5011    0.3340    1.4555 C   0  0  0  0  0  0  0  0  0  0  0  0
    3.1671   -0.0267    0.1139 C   0  0  0  0  0  0  0  0  0  0  0  0
    2.9251    1.0602   -0.9484 C   0  0  0  0  0  0  0  0  0  0  0  0
    1.6209    0.6617   -1.6553 C   0  0  0  0  0  0  0  0  0  0  0  0
    1.1235   -0.5863   -0.9068 C   0  0  0  0  0  0  0  0  0  0  0  0
    2.4480   -1.2356   -0.4816 C   0  0  0  0  0  0  0  0  0  0  0  0
   -3.2664   -3.1957    0.1698 H   0  0  0  0  0  0  0  0  0  0  0  0
   -3.5459   -1.7115   -0.7447 H   0  0  0  0  0  0  0  0  0  0  0  0
   -3.6497   -1.7007    1.0247 H   0  0  0  0  0  0  0  0  0  0  0  0
   -1.1275   -2.3332   -0.5871 H   0  0  0  0  0  0  0  0  0  0  0  0
   -1.2154   -2.2913    1.1644 H   0  0  0  0  0  0  0  0  0  0  0  0
   -2.6270    2.1481    2.1188 H   0  0  0  0  0  0  0  0  0  0  0  0
   -2.2603    2.1290   -1.8537 H   0  0  0  0  0  0  0  0  0  0  0  0
    0.4966    0.5281    2.3425 H   0  0  0  0  0  0  0  0  0  0  0  0
    2.8516   -0.3636    2.2262 H   0  0  0  0  0  0  0  0  0  0  0  0
    2.8041    1.3393    1.7697 H   0  0  0  0  0  0  0  0  0  0  0  0
    4.2369   -0.2037    0.2634 H   0  0  0  0  0  0  0  0  0  0  0  0
    3.7445    1.0667   -1.6769 H   0  0  0  0  0  0  0  0  0  0  0  0
    2.8641    2.0643   -0.5161 H   0  0  0  0  0  0  0  0  0  0  0  0
    1.8363    0.4094   -2.7008 H   0  0  0  0  0  0  0  0  0  0  0  0
    0.9015    1.4863   -1.6613 H   0  0  0  0  0  0  0  0  0  0  0  0
    0.5657   -1.2600   -1.5613 H   0  0  0  0  0  0  0  0  0  0  0  0
    2.3176   -2.0550    0.2338 H   0  0  0  0  0  0  0  0  0  0  0  0
    2.9900   -1.6234   -1.3528 H   0  0  0  0  0  0  0  0  0  0  0  0
  1  2  1  0
  2  3  1  0
  3  4  1  0
  4  5  2  0
  4  6  1  0
  6  7  1  0
  7  8  2  0
  7  9  1  0
  9 10  1  0
 10 11  2  0
  3 12  1  0
 12 13  2  0
 13 14  1  0
 14 15  1  0
 15 16  1  0
 16 17  1  0
 17 18  1  0
 18 19  1  0
 10  3  1  0
 18 12  1  0
 19 15  1  0
  1 20  1  0
  1 21  1  0
  1 22  1  0
  2 23  1  0
  2 24  1  0
  6 25  1  0
  9 26  1  0
 13 27  1  0
 14 28  1  0
 14 29  1  0
 15 30  1  0
 16 31  1  0
 16 32  1  0
 17 33  1  0
 17 34  1  0
 18 35  1  0
 19 36  1  0
 19 37  1  0
M  END
>  <Energy>  (2) 
-68.31944018346807

>  <Real charge>  (2) 
0

>  <Mult>  (2) 
1

$$$$
mol_347 3
     RDKit          3D

 37 39  0  0  0  0  0  0  0  0999 V2000
   -3.0715    1.8657    0.2791 C   0  0  0  0  0  0  0  0  0  0  0  0
   -1.5811    1.5261    0.3183 C   0  0  0  0  0  0  0  0  0  0  0  0
   -1.2511    0.0318    0.0484 C   0  0  0  0  0  0  0  0  0  0  0  0
   -1.6839   -0.3704   -1.3655 C   0  0  0  0  0  0  0  0  0  0  0  0
   -1.7196    0.4025   -2.3224 O   0  0  0  0  0  0  0  0  0  0  0  0
   -2.0028   -1.6868   -1.5502 N   0  0  0  0  0  0  0  0  0  0  0  0
   -2.5656   -2.4617   -0.5895 C   0  0  0  0  0  0  0  0  0  0  0  0
   -3.2167   -3.4617   -0.8738 O   0  0  0  0  0  0  0  0  0  0  0  0
   -2.4442   -2.0385    0.6952 N   0  0  0  0  0  0  0  0  0  0  0  0
   -1.9707   -0.8207    1.1040 C   0  0  0  0  0  0  0  0  0  0  0  0
   -2.0926   -0.4925    2.2844 O   0  0  0  0  0  0  0  0  0  0  0  0
    0.2853   -0.2083    0.1079 C   0  0  0  0  0  0  0  0  0  0  0  0
    0.8969   -1.1577    0.8549 C   0  0  0  0  0  0  0  0  0  0  0  0
    2.3941   -1.3638    0.8582 C   0  0  0  0  0  0  0  0  0  0  0  0
    3.1544   -0.3307    0.0053 C   0  0  0  0  0  0  0  0  0  0  0  0
    3.1333    1.0639    0.6555 C   0  0  0  0  0  0  0  0  0  0  0  0
    1.8711    1.7510    0.1137 C   0  0  0  0  0  0  0  0  0  0  0  0
    1.1797    0.6910   -0.7602 C   0  0  0  0  0  0  0  0  0  0  0  0
    2.3824   -0.1006   -1.2923 C   0  0  0  0  0  0  0  0  0  0  0  0
   -3.2104    2.9379    0.4539 H   0  0  0  0  0  0  0  0  0  0  0  0
   -3.5146    1.6290   -0.6925 H   0  0  0  0  0  0  0  0  0  0  0  0
   -3.6324    1.3326    1.0517 H   0  0  0  0  0  0  0  0  0  0  0  0
   -1.0869    2.1715   -0.4179 H   0  0  0  0  0  0  0  0  0  0  0  0
   -1.1913    1.8221    1.3011 H   0  0  0  0  0  0  0  0  0  0  0  0
   -2.2662   -1.9366   -2.4938 H   0  0  0  0  0  0  0  0  0  0  0  0
   -2.9255   -2.5879    1.3935 H   0  0  0  0  0  0  0  0  0  0  0  0
    0.3456   -1.8340    1.5024 H   0  0  0  0  0  0  0  0  0  0  0  0
    2.5928   -2.3678    0.4635 H   0  0  0  0  0  0  0  0  0  0  0  0
    2.7623   -1.3455    1.8903 H   0  0  0  0  0  0  0  0  0  0  0  0
    4.1800   -0.6713   -0.1687 H   0  0  0  0  0  0  0  0  0  0  0  0
    4.0169    1.6369    0.3505 H   0  0  0  0  0  0  0  0  0  0  0  0
    3.1351    1.0181    1.7495 H   0  0  0  0  0  0  0  0  0  0  0  0
    2.1610    2.6117   -0.5012 H   0  0  0  0  0  0  0  0  0  0  0  0
    1.2407    2.1283    0.9250 H   0  0  0  0  0  0  0  0  0  0  0  0
    0.6285    1.1425   -1.5882 H   0  0  0  0  0  0  0  0  0  0  0  0
    2.9685    0.5049   -1.9945 H   0  0  0  0  0  0  0  0  0  0  0  0
    2.0987   -1.0313   -1.7959 H   0  0  0  0  0  0  0  0  0  0  0  0
  1  2  1  0
  2  3  1  0
  3  4  1  0
  4  5  2  0
  4  6  1  0
  6  7  1  0
  7  8  2  0
  7  9  1  0
  9 10  1  0
 10 11  2  0
  3 12  1  0
 12 13  2  0
 13 14  1  0
 14 15  1  0
 15 16  1  0
 16 17  1  0
 17 18  1  0
 18 19  1  0
 10  3  1  0
 18 12  1  0
 19 15  1  0
  1 20  1  0
  1 21  1  0
  1 22  1  0
  2 23  1  0
  2 24  1  0
  6 25  1  0
  9 26  1  0
 13 27  1  0
 14 28  1  0
 14 29  1  0
 15 30  1  0
 16 31  1  0
 16 32  1  0
 17 33  1  0
 17 34  1  0
 18 35  1  0
 19 36  1  0
 19 37  1  0
M  END
>  <Energy>  (3) 
-68.1882448812461

>  <Real charge>  (3) 
0

>  <Mult>  (3) 
1

$$$$
