mol_196 213
     RDKit          3D

 40 41  0  0  0  0  0  0  0  0999 V2000
    5.7954    0.3994   -0.0685 C   0  0  0  0  0  0  0  0  0  0  0  0
    4.4585   -0.2341   -0.4397 C   0  0  0  0  0  0  0  0  0  0  0  0
    4.6450   -1.2816   -1.5312 C   0  0  0  0  0  0  0  0  0  0  0  0
    3.9472   -0.8970    0.7289 O   0  0  0  0  0  0  0  0  0  0  0  0
    2.7818   -0.3583    1.2075 C   0  0  0  0  0  0  0  0  0  0  0  0
    1.6215   -0.3599    0.4211 C   0  0  0  0  0  0  0  0  0  0  0  0
    0.3926    0.1393    0.8996 C   0  0  0  0  0  0  0  0  0  0  0  0
    0.3761    0.6321    2.2267 C   0  0  0  0  0  0  0  0  0  0  0  0
   -1.0006    1.3488    3.0023 Cl  0  0  0  0  0  0  0  0  0  0  0  0
    1.5347    0.6049    3.0224 C   0  0  0  0  0  0  0  0  0  0  0  0
    2.7298    0.1037    2.5187 C   0  0  0  0  0  0  0  0  0  0  0  0
    4.1197    0.0909    3.5396 Cl  0  0  0  0  0  0  0  0  0  0  0  0
   -0.7428    0.1091    0.0410 N   0  0  0  0  0  0  0  0  0  0  0  0
   -1.9935    0.3662    0.5177 N   0  0  0  0  0  0  0  0  0  0  0  0
   -2.7529    0.2213   -0.5188 C   0  0  0  0  0  0  0  0  0  0  0  0
   -2.1251   -0.1187   -1.6604 O   0  0  0  0  0  0  0  0  0  0  0  0
   -0.8079   -0.1952   -1.3106 C   0  0  0  0  0  0  0  0  0  0  0  0
    0.0738   -0.4717   -2.1074 O   0  0  0  0  0  0  0  0  0  0  0  0
   -4.2512    0.3842   -0.5801 C   0  0  0  0  0  0  0  0  0  0  0  0
   -4.5969    1.4517   -1.6263 C   0  0  0  0  0  0  0  0  0  0  0  0
   -4.7967    0.8241    0.7869 C   0  0  0  0  0  0  0  0  0  0  0  0
   -4.8798   -0.9606   -0.9661 C   0  0  0  0  0  0  0  0  0  0  0  0
    6.4895   -0.3492    0.3293 H   0  0  0  0  0  0  0  0  0  0  0  0
    5.6569    1.1496    0.7173 H   0  0  0  0  0  0  0  0  0  0  0  0
    6.2588    0.8850   -0.9327 H   0  0  0  0  0  0  0  0  0  0  0  0
    3.7893    0.5556   -0.8056 H   0  0  0  0  0  0  0  0  0  0  0  0
    5.3082   -2.0864   -1.1949 H   0  0  0  0  0  0  0  0  0  0  0  0
    3.6875   -1.7493   -1.7831 H   0  0  0  0  0  0  0  0  0  0  0  0
    5.0641   -0.8382   -2.4396 H   0  0  0  0  0  0  0  0  0  0  0  0
    1.7004   -0.7968   -0.5697 H   0  0  0  0  0  0  0  0  0  0  0  0
    1.5014    0.9831    4.0422 H   0  0  0  0  0  0  0  0  0  0  0  0
   -4.2614    1.1580   -2.6275 H   0  0  0  0  0  0  0  0  0  0  0  0
   -5.6779    1.6233   -1.6762 H   0  0  0  0  0  0  0  0  0  0  0  0
   -4.1134    2.4066   -1.3897 H   0  0  0  0  0  0  0  0  0  0  0  0
   -4.3591    1.7786    1.1019 H   0  0  0  0  0  0  0  0  0  0  0  0
   -5.8849    0.9494    0.7583 H   0  0  0  0  0  0  0  0  0  0  0  0
   -4.5670    0.0863    1.5645 H   0  0  0  0  0  0  0  0  0  0  0  0
   -4.5405   -1.2942   -1.9535 H   0  0  0  0  0  0  0  0  0  0  0  0
   -5.9730   -0.8941   -0.9954 H   0  0  0  0  0  0  0  0  0  0  0  0
   -4.6077   -1.7436   -0.2488 H   0  0  0  0  0  0  0  0  0  0  0  0
  1  2  1  0
  2  3  1  0
  2  4  1  0
  4  5  1  0
  5  6  2  0
  6  7  1  0
  7  8  2  0
  8  9  1  0
  8 10  1  0
 10 11  2  0
 11 12  1  0
  7 13  1  0
 13 14  1  0
 14 15  2  0
 15 16  1  0
 16 17  1  0
 17 18  2  0
 15 19  1  0
 19 20  1  0
 19 21  1  0
 19 22  1  0
 11  5  1  0
 17 13  1  0
  1 23  1  0
  1 24  1  0
  1 25  1  0
  2 26  1  0
  3 27  1  0
  3 28  1  0
  3 29  1  0
  6 30  1  0
 10 31  1  0
 20 32  1  0
 20 33  1  0
 20 34  1  0
 21 35  1  0
 21 36  1  0
 21 37  1  0
 22 38  1  0
 22 39  1  0
 22 40  1  0
M  END
>  <Energy>  (1) 
59.293850161017325

>  <Real charge>  (1) 
0

>  <Mult>  (1) 
1

$$$$
mol_196 11
     RDKit          3D

 40 41  0  0  0  0  0  0  0  0999 V2000
    4.4865    0.6157   -1.5247 C   0  0  0  0  0  0  0  0  0  0  0  0
    4.7496   -0.1442   -0.2269 C   0  0  0  0  0  0  0  0  0  0  0  0
    6.1637   -0.7176   -0.2340 C   0  0  0  0  0  0  0  0  0  0  0  0
    3.8396   -1.2553   -0.1288 O   0  0  0  0  0  0  0  0  0  0  0  0
    2.7375   -0.9615    0.6315 C   0  0  0  0  0  0  0  0  0  0  0  0
    1.5550   -0.6422   -0.0478 C   0  0  0  0  0  0  0  0  0  0  0  0
    0.3529   -0.3674    0.6339 C   0  0  0  0  0  0  0  0  0  0  0  0
    0.3895   -0.4451    2.0473 C   0  0  0  0  0  0  0  0  0  0  0  0
   -0.9462   -0.0904    3.0966 Cl  0  0  0  0  0  0  0  0  0  0  0  0
    1.5718   -0.7975    2.7228 C   0  0  0  0  0  0  0  0  0  0  0  0
    2.7405   -1.0656    2.0187 C   0  0  0  0  0  0  0  0  0  0  0  0
    4.1460   -1.5311    2.9007 Cl  0  0  0  0  0  0  0  0  0  0  0  0
   -0.8095   -0.0436   -0.1219 N   0  0  0  0  0  0  0  0  0  0  0  0
   -2.0368    0.0217    0.4675 N   0  0  0  0  0  0  0  0  0  0  0  0
   -2.8330    0.3042   -0.5114 C   0  0  0  0  0  0  0  0  0  0  0  0
   -2.2520    0.4314   -1.7192 O   0  0  0  0  0  0  0  0  0  0  0  0
   -0.9266    0.2071   -1.4811 C   0  0  0  0  0  0  0  0  0  0  0  0
   -0.0804    0.2541   -2.3585 O   0  0  0  0  0  0  0  0  0  0  0  0
   -4.3275    0.4968   -0.4434 C   0  0  0  0  0  0  0  0  0  0  0  0
   -4.6768    1.8947   -0.9701 C   0  0  0  0  0  0  0  0  0  0  0  0
   -4.8167    0.3687    1.0071 C   0  0  0  0  0  0  0  0  0  0  0  0
   -5.0048   -0.5786   -1.3020 C   0  0  0  0  0  0  0  0  0  0  0  0
    5.2231    1.4111   -1.6746 H   0  0  0  0  0  0  0  0  0  0  0  0
    4.5148   -0.0588   -2.3875 H   0  0  0  0  0  0  0  0  0  0  0  0
    3.4919    1.0728   -1.5135 H   0  0  0  0  0  0  0  0  0  0  0  0
    4.6541    0.5418    0.6252 H   0  0  0  0  0  0  0  0  0  0  0  0
    6.3560   -1.2815    0.6844 H   0  0  0  0  0  0  0  0  0  0  0  0
    6.2994   -1.4181   -1.0656 H   0  0  0  0  0  0  0  0  0  0  0  0
    6.9136    0.0750   -0.3173 H   0  0  0  0  0  0  0  0  0  0  0  0
    1.6070   -0.6365   -1.1332 H   0  0  0  0  0  0  0  0  0  0  0  0
    1.5751   -0.8636    3.8091 H   0  0  0  0  0  0  0  0  0  0  0  0
   -4.1601    2.6727   -0.3961 H   0  0  0  0  0  0  0  0  0  0  0  0
   -4.3814    2.0156   -2.0186 H   0  0  0  0  0  0  0  0  0  0  0  0
   -5.7538    2.0857   -0.9052 H   0  0  0  0  0  0  0  0  0  0  0  0
   -4.5824   -0.6188    1.4216 H   0  0  0  0  0  0  0  0  0  0  0  0
   -5.9015    0.5087    1.0738 H   0  0  0  0  0  0  0  0  0  0  0  0
   -4.3435    1.1162    1.6546 H   0  0  0  0  0  0  0  0  0  0  0  0
   -6.0962   -0.4922   -1.2586 H   0  0  0  0  0  0  0  0  0  0  0  0
   -4.7314   -1.5844   -0.9625 H   0  0  0  0  0  0  0  0  0  0  0  0
   -4.7068   -0.4999   -2.3538 H   0  0  0  0  0  0  0  0  0  0  0  0
  1  2  1  0
  2  3  1  0
  2  4  1  0
  4  5  1  0
  5  6  2  0
  6  7  1  0
  7  8  2  0
  8  9  1  0
  8 10  1  0
 10 11  2  0
 11 12  1  0
  7 13  1  0
 13 14  1  0
 14 15  2  0
 15 16  1  0
 16 17  1  0
 17 18  2  0
 15 19  1  0
 19 20  1  0
 19 21  1  0
 19 22  1  0
 11  5  1  0
 17 13  1  0
  1 23  1  0
  1 24  1  0
  1 25  1  0
  2 26  1  0
  3 27  1  0
  3 28  1  0
  3 29  1  0
  6 30  1  0
 10 31  1  0
 20 32  1  0
 20 33  1  0
 20 34  1  0
 21 35  1  0
 21 36  1  0
 21 37  1  0
 22 38  1  0
 22 39  1  0
 22 40  1  0
M  END
>  <Energy>  (2) 
59.63702253999804

>  <Real charge>  (2) 
0

>  <Mult>  (2) 
1

$$$$
