mol_58 118
     RDKit          3D

 24 25  0  0  0  0  0  0  0  0999 V2000
    2.9634   -0.7555   -0.3066 C   0  0  0  0  0  0  0  0  0  0  0  0
    1.4594   -0.7949   -0.2149 C   0  0  0  0  0  0  0  0  0  0  0  0
    0.8210   -2.0330   -0.3608 C   0  0  0  0  0  0  0  0  0  0  0  0
   -0.5634   -2.1304   -0.2857 C   0  0  0  0  0  0  0  0  0  0  0  0
   -1.3488   -0.9923   -0.0626 C   0  0  0  0  0  0  0  0  0  0  0  0
   -2.8447   -1.1638    0.0085 C   0  0  0  0  0  0  0  0  0  0  0  0
   -0.7289    0.2766    0.0891 C   0  0  0  0  0  0  0  0  0  0  0  0
   -1.4736    1.4574    0.3161 C   0  0  0  0  0  0  0  0  0  0  0  0
   -0.8598    2.7013    0.4645 C   0  0  0  0  0  0  0  0  0  0  0  0
    0.5195    2.7982    0.3896 C   0  0  0  0  0  0  0  0  0  0  0  0
    1.2812    1.6510    0.1667 C   0  0  0  0  0  0  0  0  0  0  0  0
    0.6885    0.3763    0.0123 C   0  0  0  0  0  0  0  0  0  0  0  0
    3.3925   -0.3838    0.6295 H   0  0  0  0  0  0  0  0  0  0  0  0
    3.3836   -1.7514   -0.4845 H   0  0  0  0  0  0  0  0  0  0  0  0
    3.2778   -0.1164   -1.1380 H   0  0  0  0  0  0  0  0  0  0  0  0
    1.4016   -2.9363   -0.5352 H   0  0  0  0  0  0  0  0  0  0  0  0
   -1.0277   -3.1071   -0.4034 H   0  0  0  0  0  0  0  0  0  0  0  0
   -3.3328   -0.5811   -0.7794 H   0  0  0  0  0  0  0  0  0  0  0  0
   -3.2181   -0.8485    0.9881 H   0  0  0  0  0  0  0  0  0  0  0  0
   -3.1385   -2.2099   -0.1307 H   0  0  0  0  0  0  0  0  0  0  0  0
   -2.5584    1.4237    0.3814 H   0  0  0  0  0  0  0  0  0  0  0  0
   -1.4626    3.5884    0.6378 H   0  0  0  0  0  0  0  0  0  0  0  0
    1.0078    3.7621    0.5038 H   0  0  0  0  0  0  0  0  0  0  0  0
    2.3608    1.7695    0.1145 H   0  0  0  0  0  0  0  0  0  0  0  0
  1  2  1  0
  2  3  2  0
  3  4  1  0
  4  5  2  0
  5  6  1  0
  5  7  1  0
  7  8  2  0
  8  9  1  0
  9 10  2  0
 10 11  1  0
 11 12  2  0
 12  2  1  0
 12  7  1  0
  1 13  1  0
  1 14  1  0
  1 15  1  0
  3 16  1  0
  4 17  1  0
  6 18  1  0
  6 19  1  0
  6 20  1  0
  8 21  1  0
  9 22  1  0
 10 23  1  0
 11 24  1  0
M  END
>  <Energy>  (1) 
40.99673188519036

>  <Real charge>  (1) 
0

>  <Mult>  (1) 
1

$$$$
