mol_559 17
     RDKit          3D

 21 23  0  0  0  0  0  0  0  0999 V2000
   -3.5086   -0.0009    0.3180 C   0  0  0  0  0  0  0  0  0  0  0  0
   -3.0309    0.5391   -0.8663 C   0  0  0  0  0  0  0  0  0  0  0  0
   -1.6552    0.5953   -1.1092 C   0  0  0  0  0  0  0  0  0  0  0  0
   -0.7268    0.1037   -0.1537 C   0  0  0  0  0  0  0  0  0  0  0  0
   -1.2372   -0.4338    1.0285 C   0  0  0  0  0  0  0  0  0  0  0  0
   -2.6233   -0.4930    1.2786 C   0  0  0  0  0  0  0  0  0  0  0  0
    0.0165   -0.9776    2.0649 S   0  0  0  0  0  0  0  0  0  0  0  0
    1.2532   -0.5129    0.9711 C   0  0  0  0  0  0  0  0  0  0  0  0
    2.6427   -0.6602    1.1573 C   0  0  0  0  0  0  0  0  0  0  0  0
    3.5124   -0.2237    0.1564 C   0  0  0  0  0  0  0  0  0  0  0  0
    3.0160    0.3471   -1.0056 C   0  0  0  0  0  0  0  0  0  0  0  0
    1.6368    0.4908   -1.1850 C   0  0  0  0  0  0  0  0  0  0  0  0
    0.7240    0.0576   -0.1871 C   0  0  0  0  0  0  0  0  0  0  0  0
   -4.5794   -0.0425    0.5027 H   0  0  0  0  0  0  0  0  0  0  0  0
   -3.7262    0.9206   -1.6100 H   0  0  0  0  0  0  0  0  0  0  0  0
   -1.2970    1.0217   -2.0427 H   0  0  0  0  0  0  0  0  0  0  0  0
   -2.9994   -0.9158    2.2061 H   0  0  0  0  0  0  0  0  0  0  0  0
    3.0336   -1.1073    2.0672 H   0  0  0  0  0  0  0  0  0  0  0  0
    4.5858   -0.3335    0.2916 H   0  0  0  0  0  0  0  0  0  0  0  0
    3.6991    0.6849   -1.7810 H   0  0  0  0  0  0  0  0  0  0  0  0
    1.2638    0.9404   -2.1017 H   0  0  0  0  0  0  0  0  0  0  0  0
  1  2  2  0
  2  3  1  0
  3  4  2  0
  4  5  1  0
  5  6  2  0
  5  7  1  0
  7  8  1  0
  8  9  2  0
  9 10  1  0
 10 11  2  0
 11 12  1  0
 12 13  2  0
  6  1  1  0
 13  4  1  0
 13  8  1  0
  1 14  1  0
  2 15  1  0
  3 16  1  0
  6 17  1  0
  9 18  1  0
 10 19  1  0
 11 20  1  0
 12 21  1  0
M  END
>  <Energy>  (1) 
39.611178799316704

>  <Real charge>  (1) 
0

>  <Mult>  (1) 
1

$$$$
