mol_603 11
     RDKit          3D

 15 16  0  0  0  0  0  0  0  0999 V2000
    4.0854   -0.7946   -0.0831 S   0  0  0  0  0  0  0  0  0  0  0  0
    2.3473   -0.6431   -0.0889 C   0  0  0  0  0  0  0  0  0  0  0  0
    1.7840    0.5168    0.1484 N   0  0  0  0  0  0  0  0  0  0  0  0
    0.4067    0.3786    0.0882 C   0  0  0  0  0  0  0  0  0  0  0  0
   -0.5368    1.4066    0.2887 C   0  0  0  0  0  0  0  0  0  0  0  0
   -1.9038    1.1244    0.1977 C   0  0  0  0  0  0  0  0  0  0  0  0
   -2.3398   -0.1653   -0.0897 C   0  0  0  0  0  0  0  0  0  0  0  0
   -1.4251   -1.2033   -0.2930 C   0  0  0  0  0  0  0  0  0  0  0  0
   -0.0548   -0.9089   -0.1993 C   0  0  0  0  0  0  0  0  0  0  0  0
    1.2995   -1.9556   -0.3947 S   0  0  0  0  0  0  0  0  0  0  0  0
    4.3323    0.4916    0.1994 H   0  0  0  0  0  0  0  0  0  0  0  0
   -0.1933    2.4118    0.5128 H   0  0  0  0  0  0  0  0  0  0  0  0
   -2.6282    1.9207    0.3531 H   0  0  0  0  0  0  0  0  0  0  0  0
   -3.4064   -0.3707   -0.1575 H   0  0  0  0  0  0  0  0  0  0  0  0
   -1.7671   -2.2092   -0.5172 H   0  0  0  0  0  0  0  0  0  0  0  0
  1  2  1  0
  2  3  2  0
  3  4  1  0
  4  5  2  0
  5  6  1  0
  6  7  2  0
  7  8  1  0
  8  9  2  0
  9 10  1  0
  9  4  1  0
 10  2  1  0
  1 11  1  0
  5 12  1  0
  6 13  1  0
  7 14  1  0
  8 15  1  0
M  END
>  <Energy>  (1) 
5.974163460069867

>  <Real charge>  (1) 
0

>  <Mult>  (1) 
1

$$$$
