mol_924 455
     RDKit          3D

 27 26  0  0  0  0  0  0  0  0999 V2000
    4.8883    0.0957    0.7560 C   0  0  0  0  0  0  0  0  0  0  0  0
    3.6752   -0.5881    0.1460 C   0  0  0  0  0  0  0  0  0  0  0  0
    2.3842    0.1459    0.4968 C   0  0  0  0  0  0  0  0  0  0  0  0
    1.1649   -0.5361   -0.1127 C   0  0  0  0  0  0  0  0  0  0  0  0
    0.0047    0.2063    0.2593 O   0  0  0  0  0  0  0  0  0  0  0  0
   -1.1857   -0.3707   -0.2750 C   0  0  0  0  0  0  0  0  0  0  0  0
   -2.3698    0.4803    0.1685 C   0  0  0  0  0  0  0  0  0  0  0  0
   -3.6903   -0.0700   -0.3628 C   0  0  0  0  0  0  0  0  0  0  0  0
   -4.8682    0.7820    0.0820 C   0  0  0  0  0  0  0  0  0  0  0  0
    5.8017   -0.4465    0.4921 H   0  0  0  0  0  0  0  0  0  0  0  0
    4.9851    1.1228    0.3898 H   0  0  0  0  0  0  0  0  0  0  0  0
    4.8142    0.1253    1.8478 H   0  0  0  0  0  0  0  0  0  0  0  0
    3.6258   -1.6220    0.5070 H   0  0  0  0  0  0  0  0  0  0  0  0
    3.7957   -0.6301   -0.9428 H   0  0  0  0  0  0  0  0  0  0  0  0
    2.2625    0.2010    1.5860 H   0  0  0  0  0  0  0  0  0  0  0  0
    2.4310    1.1851    0.1477 H   0  0  0  0  0  0  0  0  0  0  0  0
    1.0780   -1.5626    0.2615 H   0  0  0  0  0  0  0  0  0  0  0  0
    1.2499   -0.5592   -1.2052 H   0  0  0  0  0  0  0  0  0  0  0  0
   -1.1227   -0.3923   -1.3691 H   0  0  0  0  0  0  0  0  0  0  0  0
   -1.2946   -1.3957    0.0976 H   0  0  0  0  0  0  0  0  0  0  0  0
   -2.2232    1.5125   -0.1739 H   0  0  0  0  0  0  0  0  0  0  0  0
   -2.3918    0.5284    1.2644 H   0  0  0  0  0  0  0  0  0  0  0  0
   -3.6653   -0.1052   -1.4582 H   0  0  0  0  0  0  0  0  0  0  0  0
   -3.8353   -1.0971   -0.0084 H   0  0  0  0  0  0  0  0  0  0  0  0
   -5.8034    0.3699   -0.3096 H   0  0  0  0  0  0  0  0  0  0  0  0
   -4.9408    0.8115    1.1739 H   0  0  0  0  0  0  0  0  0  0  0  0
   -4.7699    1.8090   -0.2840 H   0  0  0  0  0  0  0  0  0  0  0  0
  1  2  1  0
  2  3  1  0
  3  4  1  0
  4  5  1  0
  5  6  1  0
  6  7  1  0
  7  8  1  0
  8  9  1  0
  1 10  1  0
  1 11  1  0
  1 12  1  0
  2 13  1  0
  2 14  1  0
  3 15  1  0
  3 16  1  0
  4 17  1  0
  4 18  1  0
  6 19  1  0
  6 20  1  0
  7 21  1  0
  7 22  1  0
  8 23  1  0
  8 24  1  0
  9 25  1  0
  9 26  1  0
  9 27  1  0
M  END
>  <Energy>  (1) 
0.5485137304565371

>  <Real charge>  (1) 
0

>  <Mult>  (1) 
1

$$$$
mol_924 288
     RDKit          3D

 27 26  0  0  0  0  0  0  0  0999 V2000
   -4.3537   -0.6918   -0.7766 C   0  0  0  0  0  0  0  0  0  0  0  0
   -3.0094   -0.0181   -0.5497 C   0  0  0  0  0  0  0  0  0  0  0  0
   -2.5704   -0.1249    0.9125 C   0  0  0  0  0  0  0  0  0  0  0  0
   -1.2391    0.5757    1.1675 C   0  0  0  0  0  0  0  0  0  0  0  0
   -0.2125   -0.0758    0.4224 O   0  0  0  0  0  0  0  0  0  0  0  0
    1.0579    0.5427    0.6182 C   0  0  0  0  0  0  0  0  0  0  0  0
    2.0895   -0.2132   -0.2110 C   0  0  0  0  0  0  0  0  0  0  0  0
    3.4844    0.3866   -0.0591 C   0  0  0  0  0  0  0  0  0  0  0  0
    4.5096   -0.3705   -0.8879 C   0  0  0  0  0  0  0  0  0  0  0  0
   -5.1334   -0.2281   -0.1639 H   0  0  0  0  0  0  0  0  0  0  0  0
   -4.6495   -0.6032   -1.8266 H   0  0  0  0  0  0  0  0  0  0  0  0
   -4.3063   -1.7562   -0.5255 H   0  0  0  0  0  0  0  0  0  0  0  0
   -2.2633   -0.4829   -1.2042 H   0  0  0  0  0  0  0  0  0  0  0  0
   -3.0828    1.0367   -0.8392 H   0  0  0  0  0  0  0  0  0  0  0  0
   -2.4781   -1.1849    1.1786 H   0  0  0  0  0  0  0  0  0  0  0  0
   -3.3365    0.3155    1.5611 H   0  0  0  0  0  0  0  0  0  0  0  0
   -0.9995    0.5224    2.2356 H   0  0  0  0  0  0  0  0  0  0  0  0
   -1.3015    1.6295    0.8721 H   0  0  0  0  0  0  0  0  0  0  0  0
    1.3235    0.5048    1.6809 H   0  0  0  0  0  0  0  0  0  0  0  0
    1.0082    1.5899    0.2986 H   0  0  0  0  0  0  0  0  0  0  0  0
    2.0947   -1.2683    0.0904 H   0  0  0  0  0  0  0  0  0  0  0  0
    1.7847   -0.2043   -1.2650 H   0  0  0  0  0  0  0  0  0  0  0  0
    3.4742    1.4372   -0.3719 H   0  0  0  0  0  0  0  0  0  0  0  0
    3.7866    0.3646    0.9944 H   0  0  0  0  0  0  0  0  0  0  0  0
    5.5013    0.0758   -0.7642 H   0  0  0  0  0  0  0  0  0  0  0  0
    4.5678   -1.4188   -0.5779 H   0  0  0  0  0  0  0  0  0  0  0  0
    4.2537   -0.3402   -1.9518 H   0  0  0  0  0  0  0  0  0  0  0  0
  1  2  1  0
  2  3  1  0
  3  4  1  0
  4  5  1  0
  5  6  1  0
  6  7  1  0
  7  8  1  0
  8  9  1  0
  1 10  1  0
  1 11  1  0
  1 12  1  0
  2 13  1  0
  2 14  1  0
  3 15  1  0
  3 16  1  0
  4 17  1  0
  4 18  1  0
  6 19  1  0
  6 20  1  0
  7 21  1  0
  7 22  1  0
  8 23  1  0
  8 24  1  0
  9 25  1  0
  9 26  1  0
  9 27  1  0
M  END
>  <Energy>  (2) 
0.7861852740077694

>  <Real charge>  (2) 
0

>  <Mult>  (2) 
1

$$$$
mol_924 54
     RDKit          3D

 27 26  0  0  0  0  0  0  0  0999 V2000
   -3.7679    1.2254    0.3227 C   0  0  0  0  0  0  0  0  0  0  0  0
   -2.5178    0.5825   -0.2571 C   0  0  0  0  0  0  0  0  0  0  0  0
   -2.3590   -0.8625    0.2216 C   0  0  0  0  0  0  0  0  0  0  0  0
   -1.1275   -1.5356   -0.3771 C   0  0  0  0  0  0  0  0  0  0  0  0
    0.0438   -0.8583    0.0720 O   0  0  0  0  0  0  0  0  0  0  0  0
    1.2308   -1.4347   -0.4677 C   0  0  0  0  0  0  0  0  0  0  0  0
    2.4426   -0.6571    0.0373 C   0  0  0  0  0  0  0  0  0  0  0  0
    2.4405    0.7946   -0.4475 C   0  0  0  0  0  0  0  0  0  0  0  0
    3.6719    1.5438    0.0371 C   0  0  0  0  0  0  0  0  0  0  0  0
   -3.7275    1.2452    1.4165 H   0  0  0  0  0  0  0  0  0  0  0  0
   -3.8634    2.2563   -0.0324 H   0  0  0  0  0  0  0  0  0  0  0  0
   -4.6666    0.6779    0.0214 H   0  0  0  0  0  0  0  0  0  0  0  0
   -1.6441    1.1765    0.0343 H   0  0  0  0  0  0  0  0  0  0  0  0
   -2.5760    0.6066   -1.3515 H   0  0  0  0  0  0  0  0  0  0  0  0
   -2.2776   -0.8667    1.3155 H   0  0  0  0  0  0  0  0  0  0  0  0
   -3.2500   -1.4412   -0.0479 H   0  0  0  0  0  0  0  0  0  0  0  0
   -1.1756   -1.5101   -1.4719 H   0  0  0  0  0  0  0  0  0  0  0  0
   -1.0885   -2.5807   -0.0498 H   0  0  0  0  0  0  0  0  0  0  0  0
    1.1927   -1.4088   -1.5628 H   0  0  0  0  0  0  0  0  0  0  0  0
    1.3063   -2.4783   -0.1417 H   0  0  0  0  0  0  0  0  0  0  0  0
    2.4458   -0.6646    1.1341 H   0  0  0  0  0  0  0  0  0  0  0  0
    3.3565   -1.1585   -0.3016 H   0  0  0  0  0  0  0  0  0  0  0  0
    1.5441    1.3129   -0.0881 H   0  0  0  0  0  0  0  0  0  0  0  0
    2.4125    0.8201   -1.5430 H   0  0  0  0  0  0  0  0  0  0  0  0
    3.7138    1.5636    1.1308 H   0  0  0  0  0  0  0  0  0  0  0  0
    3.6516    2.5779   -0.3209 H   0  0  0  0  0  0  0  0  0  0  0  0
    4.5884    1.0739   -0.3338 H   0  0  0  0  0  0  0  0  0  0  0  0
  1  2  1  0
  2  3  1  0
  3  4  1  0
  4  5  1  0
  5  6  1  0
  6  7  1  0
  7  8  1  0
  8  9  1  0
  1 10  1  0
  1 11  1  0
  1 12  1  0
  2 13  1  0
  2 14  1  0
  3 15  1  0
  3 16  1  0
  4 17  1  0
  4 18  1  0
  6 19  1  0
  6 20  1  0
  7 21  1  0
  7 22  1  0
  8 23  1  0
  8 24  1  0
  9 25  1  0
  9 26  1  0
  9 27  1  0
M  END
>  <Energy>  (3) 
0.9431065614083147

>  <Real charge>  (3) 
0

>  <Mult>  (3) 
1

$$$$
mol_924 275
     RDKit          3D

 27 26  0  0  0  0  0  0  0  0999 V2000
    3.9887   -1.0632    0.4840 C   0  0  0  0  0  0  0  0  0  0  0  0
    2.7942   -0.1221    0.4936 C   0  0  0  0  0  0  0  0  0  0  0  0
    2.2362    0.0871   -0.9160 C   0  0  0  0  0  0  0  0  0  0  0  0
    1.0577    1.0561   -0.9317 C   0  0  0  0  0  0  0  0  0  0  0  0
   -0.0196    0.5001   -0.1814 O   0  0  0  0  0  0  0  0  0  0  0  0
   -1.1528    1.3651   -0.1590 C   0  0  0  0  0  0  0  0  0  0  0  0
   -2.2677    0.7148    0.6547 C   0  0  0  0  0  0  0  0  0  0  0  0
   -2.7665   -0.5843    0.0176 C   0  0  0  0  0  0  0  0  0  0  0  0
   -3.8999   -1.1988    0.8240 C   0  0  0  0  0  0  0  0  0  0  0  0
    4.3728   -1.1983    1.4999 H   0  0  0  0  0  0  0  0  0  0  0  0
    4.7984   -0.6634   -0.1348 H   0  0  0  0  0  0  0  0  0  0  0  0
    3.7099   -2.0467    0.0925 H   0  0  0  0  0  0  0  0  0  0  0  0
    3.0992    0.8411    0.9189 H   0  0  0  0  0  0  0  0  0  0  0  0
    2.0202   -0.5360    1.1499 H   0  0  0  0  0  0  0  0  0  0  0  0
    3.0252    0.4724   -1.5722 H   0  0  0  0  0  0  0  0  0  0  0  0
    1.9133   -0.8815   -1.3169 H   0  0  0  0  0  0  0  0  0  0  0  0
    1.3522    2.0202   -0.5012 H   0  0  0  0  0  0  0  0  0  0  0  0
    0.7332    1.2161   -1.9662 H   0  0  0  0  0  0  0  0  0  0  0  0
   -0.8719    2.3169    0.3061 H   0  0  0  0  0  0  0  0  0  0  0  0
   -1.4928    1.5594   -1.1828 H   0  0  0  0  0  0  0  0  0  0  0  0
   -1.8981    0.4956    1.6639 H   0  0  0  0  0  0  0  0  0  0  0  0
   -3.0996    1.4220    0.7513 H   0  0  0  0  0  0  0  0  0  0  0  0
   -1.9478   -1.3092   -0.0554 H   0  0  0  0  0  0  0  0  0  0  0  0
   -3.1170   -0.3869   -1.0021 H   0  0  0  0  0  0  0  0  0  0  0  0
   -4.2424   -2.1248    0.3515 H   0  0  0  0  0  0  0  0  0  0  0  0
   -4.7521   -0.5147    0.8876 H   0  0  0  0  0  0  0  0  0  0  0  0
   -3.5732   -1.4370    1.8412 H   0  0  0  0  0  0  0  0  0  0  0  0
  1  2  1  0
  2  3  1  0
  3  4  1  0
  4  5  1  0
  5  6  1  0
  6  7  1  0
  7  8  1  0
  8  9  1  0
  1 10  1  0
  1 11  1  0
  1 12  1  0
  2 13  1  0
  2 14  1  0
  3 15  1  0
  3 16  1  0
  4 17  1  0
  4 18  1  0
  6 19  1  0
  6 20  1  0
  7 21  1  0
  7 22  1  0
  8 23  1  0
  8 24  1  0
  9 25  1  0
  9 26  1  0
  9 27  1  0
M  END
>  <Energy>  (4) 
1.0066925970561997

>  <Real charge>  (4) 
0

>  <Mult>  (4) 
1

$$$$
mol_924 467
     RDKit          3D

 27 26  0  0  0  0  0  0  0  0999 V2000
    4.3181   -0.1542   -0.4720 C   0  0  0  0  0  0  0  0  0  0  0  0
    3.7680   -0.4741    0.9093 C   0  0  0  0  0  0  0  0  0  0  0  0
    2.3175   -0.9530    0.8903 C   0  0  0  0  0  0  0  0  0  0  0  0
    1.3287    0.1081    0.4193 C   0  0  0  0  0  0  0  0  0  0  0  0
    0.0111   -0.4291    0.5374 O   0  0  0  0  0  0  0  0  0  0  0  0
   -0.9811    0.5078    0.1208 C   0  0  0  0  0  0  0  0  0  0  0  0
   -2.3498   -0.1438    0.2793 C   0  0  0  0  0  0  0  0  0  0  0  0
   -3.4744    0.7956   -0.1466 C   0  0  0  0  0  0  0  0  0  0  0  0
   -4.8374    0.1414    0.0132 C   0  0  0  0  0  0  0  0  0  0  0  0
    5.3826    0.0924   -0.4042 H   0  0  0  0  0  0  0  0  0  0  0  0
    4.2111   -1.0102   -1.1457 H   0  0  0  0  0  0  0  0  0  0  0  0
    3.8075    0.7042   -0.9182 H   0  0  0  0  0  0  0  0  0  0  0  0
    4.3878   -1.2594    1.3581 H   0  0  0  0  0  0  0  0  0  0  0  0
    3.8610    0.4089    1.5522 H   0  0  0  0  0  0  0  0  0  0  0  0
    2.0360   -1.2755    1.9009 H   0  0  0  0  0  0  0  0  0  0  0  0
    2.2222   -1.8466    0.2607 H   0  0  0  0  0  0  0  0  0  0  0  0
    1.5143    0.3739   -0.6267 H   0  0  0  0  0  0  0  0  0  0  0  0
    1.4132    1.0073    1.0400 H   0  0  0  0  0  0  0  0  0  0  0  0
   -0.8100    0.7805   -0.9268 H   0  0  0  0  0  0  0  0  0  0  0  0
   -0.9162    1.4093    0.7408 H   0  0  0  0  0  0  0  0  0  0  0  0
   -2.3824   -1.0679   -0.3116 H   0  0  0  0  0  0  0  0  0  0  0  0
   -2.4867   -0.4512    1.3238 H   0  0  0  0  0  0  0  0  0  0  0  0
   -3.3374    1.0899   -1.1937 H   0  0  0  0  0  0  0  0  0  0  0  0
   -3.4425    1.7116    0.4548 H   0  0  0  0  0  0  0  0  0  0  0  0
   -5.6280    0.8317   -0.2975 H   0  0  0  0  0  0  0  0  0  0  0  0
   -5.0195   -0.1362    1.0563 H   0  0  0  0  0  0  0  0  0  0  0  0
   -4.9138   -0.7613   -0.6013 H   0  0  0  0  0  0  0  0  0  0  0  0
  1  2  1  0
  2  3  1  0
  3  4  1  0
  4  5  1  0
  5  6  1  0
  6  7  1  0
  7  8  1  0
  8  9  1  0
  1 10  1  0
  1 11  1  0
  1 12  1  0
  2 13  1  0
  2 14  1  0
  3 15  1  0
  3 16  1  0
  4 17  1  0
  4 18  1  0
  6 19  1  0
  6 20  1  0
  7 21  1  0
  7 22  1  0
  8 23  1  0
  8 24  1  0
  9 25  1  0
  9 26  1  0
  9 27  1  0
M  END
>  <Energy>  (5) 
1.3067909671899056

>  <Real charge>  (5) 
0

>  <Mult>  (5) 
1

$$$$
mol_924 444
     RDKit          3D

 27 26  0  0  0  0  0  0  0  0999 V2000
   -4.3303   -0.1883    1.1277 C   0  0  0  0  0  0  0  0  0  0  0  0
   -3.2714   -0.5534    0.0998 C   0  0  0  0  0  0  0  0  0  0  0  0
   -1.9524    0.1621    0.3774 C   0  0  0  0  0  0  0  0  0  0  0  0
   -0.8874   -0.2008   -0.6506 C   0  0  0  0  0  0  0  0  0  0  0  0
    0.3085    0.5040   -0.3223 O   0  0  0  0  0  0  0  0  0  0  0  0
    1.3609    0.2180   -1.2403 C   0  0  0  0  0  0  0  0  0  0  0  0
    2.6138    0.9883   -0.8318 C   0  0  0  0  0  0  0  0  0  0  0  0
    3.1105    0.6851    0.5851 C   0  0  0  0  0  0  0  0  0  0  0  0
    3.5353   -0.7619    0.7810 C   0  0  0  0  0  0  0  0  0  0  0  0
   -4.5324    0.8875    1.1178 H   0  0  0  0  0  0  0  0  0  0  0  0
   -4.0110   -0.4690    2.1365 H   0  0  0  0  0  0  0  0  0  0  0  0
   -5.2665   -0.7118    0.9099 H   0  0  0  0  0  0  0  0  0  0  0  0
   -3.1164   -1.6385    0.1129 H   0  0  0  0  0  0  0  0  0  0  0  0
   -3.6349   -0.2895   -0.9002 H   0  0  0  0  0  0  0  0  0  0  0  0
   -2.1022    1.2491    0.3764 H   0  0  0  0  0  0  0  0  0  0  0  0
   -1.5879   -0.0891    1.3815 H   0  0  0  0  0  0  0  0  0  0  0  0
   -0.6935   -1.2794   -0.6308 H   0  0  0  0  0  0  0  0  0  0  0  0
   -1.2168    0.0855   -1.6560 H   0  0  0  0  0  0  0  0  0  0  0  0
    1.0578    0.5311   -2.2461 H   0  0  0  0  0  0  0  0  0  0  0  0
    1.5571   -0.8595   -1.2606 H   0  0  0  0  0  0  0  0  0  0  0  0
    2.3954    2.0623   -0.8825 H   0  0  0  0  0  0  0  0  0  0  0  0
    3.4133    0.7871   -1.5543 H   0  0  0  0  0  0  0  0  0  0  0  0
    2.3391    0.9406    1.3206 H   0  0  0  0  0  0  0  0  0  0  0  0
    3.9701    1.3327    0.7957 H   0  0  0  0  0  0  0  0  0  0  0  0
    3.9731   -0.8932    1.7758 H   0  0  0  0  0  0  0  0  0  0  0  0
    4.2850   -1.0554    0.0396 H   0  0  0  0  0  0  0  0  0  0  0  0
    2.6834   -1.4436    0.7022 H   0  0  0  0  0  0  0  0  0  0  0  0
  1  2  1  0
  2  3  1  0
  3  4  1  0
  4  5  1  0
  5  6  1  0
  6  7  1  0
  7  8  1  0
  8  9  1  0
  1 10  1  0
  1 11  1  0
  1 12  1  0
  2 13  1  0
  2 14  1  0
  3 15  1  0
  3 16  1  0
  4 17  1  0
  4 18  1  0
  6 19  1  0
  6 20  1  0
  7 21  1  0
  7 22  1  0
  8 23  1  0
  8 24  1  0
  9 25  1  0
  9 26  1  0
  9 27  1  0
M  END
>  <Energy>  (6) 
1.4284850587865505

>  <Real charge>  (6) 
0

>  <Mult>  (6) 
1

$$$$
mol_924 210
     RDKit          3D

 27 26  0  0  0  0  0  0  0  0999 V2000
   -4.0421   -0.6848    0.5627 C   0  0  0  0  0  0  0  0  0  0  0  0
   -3.5030   -0.4445   -0.8388 C   0  0  0  0  0  0  0  0  0  0  0  0
   -1.9848   -0.5827   -0.9384 C   0  0  0  0  0  0  0  0  0  0  0  0
   -1.2209    0.4725   -0.1458 C   0  0  0  0  0  0  0  0  0  0  0  0
    0.1730    0.2921   -0.3959 O   0  0  0  0  0  0  0  0  0  0  0  0
    0.9650    1.2477    0.3064 C   0  0  0  0  0  0  0  0  0  0  0  0
    2.4402    1.0000    0.0051 C   0  0  0  0  0  0  0  0  0  0  0  0
    2.9137   -0.3630    0.5152 C   0  0  0  0  0  0  0  0  0  0  0  0
    4.3933   -0.5768    0.2367 C   0  0  0  0  0  0  0  0  0  0  0  0
   -5.1366   -0.6645    0.5525 H   0  0  0  0  0  0  0  0  0  0  0  0
   -3.7035    0.0867    1.2605 H   0  0  0  0  0  0  0  0  0  0  0  0
   -3.7250   -1.6606    0.9440 H   0  0  0  0  0  0  0  0  0  0  0  0
   -3.8104    0.5500   -1.1823 H   0  0  0  0  0  0  0  0  0  0  0  0
   -3.9637   -1.1709   -1.5188 H   0  0  0  0  0  0  0  0  0  0  0  0
   -1.6898   -0.5153   -1.9934 H   0  0  0  0  0  0  0  0  0  0  0  0
   -1.6734   -1.5825   -0.6108 H   0  0  0  0  0  0  0  0  0  0  0  0
   -1.5218    1.4773   -0.4633 H   0  0  0  0  0  0  0  0  0  0  0  0
   -1.4090    0.3625    0.9274 H   0  0  0  0  0  0  0  0  0  0  0  0
    0.7783    1.1663    1.3834 H   0  0  0  0  0  0  0  0  0  0  0  0
    0.6914    2.2562   -0.0238 H   0  0  0  0  0  0  0  0  0  0  0  0
    3.0380    1.7948    0.4662 H   0  0  0  0  0  0  0  0  0  0  0  0
    2.6012    1.0486   -1.0788 H   0  0  0  0  0  0  0  0  0  0  0  0
    2.7370   -0.4372    1.5945 H   0  0  0  0  0  0  0  0  0  0  0  0
    2.3416   -1.1661    0.0369 H   0  0  0  0  0  0  0  0  0  0  0  0
    4.5995   -0.5393   -0.8378 H   0  0  0  0  0  0  0  0  0  0  0  0
    4.7116   -1.5553    0.6097 H   0  0  0  0  0  0  0  0  0  0  0  0
    5.0002    0.1887    0.7305 H   0  0  0  0  0  0  0  0  0  0  0  0
  1  2  1  0
  2  3  1  0
  3  4  1  0
  4  5  1  0
  5  6  1  0
  6  7  1  0
  7  8  1  0
  8  9  1  0
  1 10  1  0
  1 11  1  0
  1 12  1  0
  2 13  1  0
  2 14  1  0
  3 15  1  0
  3 16  1  0
  4 17  1  0
  4 18  1  0
  6 19  1  0
  6 20  1  0
  7 21  1  0
  7 22  1  0
  8 23  1  0
  8 24  1  0
  9 25  1  0
  9 26  1  0
  9 27  1  0
M  END
>  <Energy>  (7) 
1.5433299249710928

>  <Real charge>  (7) 
0

>  <Mult>  (7) 
1

$$$$
mol_924 255
     RDKit          3D

 27 26  0  0  0  0  0  0  0  0999 V2000
    4.4294    0.7985   -0.0355 C   0  0  0  0  0  0  0  0  0  0  0  0
    3.0264    0.3549   -0.4192 C   0  0  0  0  0  0  0  0  0  0  0  0
    2.4473   -0.6192    0.6094 C   0  0  0  0  0  0  0  0  0  0  0  0
    1.0525   -1.1030    0.2238 C   0  0  0  0  0  0  0  0  0  0  0  0
    0.1546    0.0049    0.2141 O   0  0  0  0  0  0  0  0  0  0  0  0
   -1.1691   -0.3886   -0.1478 C   0  0  0  0  0  0  0  0  0  0  0  0
   -2.0519    0.8547   -0.1394 C   0  0  0  0  0  0  0  0  0  0  0  0
   -3.4828    0.5939   -0.6064 C   0  0  0  0  0  0  0  0  0  0  0  0
   -4.2638   -0.3257    0.3194 C   0  0  0  0  0  0  0  0  0  0  0  0
    5.1086   -0.0577    0.0261 H   0  0  0  0  0  0  0  0  0  0  0  0
    4.8252    1.4927   -0.7834 H   0  0  0  0  0  0  0  0  0  0  0  0
    4.4285    1.3074    0.9337 H   0  0  0  0  0  0  0  0  0  0  0  0
    3.0577   -0.1221   -1.4057 H   0  0  0  0  0  0  0  0  0  0  0  0
    2.3848    1.2392   -0.5066 H   0  0  0  0  0  0  0  0  0  0  0  0
    3.1109   -1.4856    0.7118 H   0  0  0  0  0  0  0  0  0  0  0  0
    2.4000   -0.1190    1.5843 H   0  0  0  0  0  0  0  0  0  0  0  0
    1.0735   -1.5735   -0.7660 H   0  0  0  0  0  0  0  0  0  0  0  0
    0.7083   -1.8405    0.9578 H   0  0  0  0  0  0  0  0  0  0  0  0
   -1.1560   -0.8374   -1.1475 H   0  0  0  0  0  0  0  0  0  0  0  0
   -1.5327   -1.1275    0.5739 H   0  0  0  0  0  0  0  0  0  0  0  0
   -1.5987    1.6150   -0.7883 H   0  0  0  0  0  0  0  0  0  0  0  0
   -2.0561    1.2933    0.8664 H   0  0  0  0  0  0  0  0  0  0  0  0
   -3.4739    0.1711   -1.6178 H   0  0  0  0  0  0  0  0  0  0  0  0
   -4.0088    1.5540   -0.6691 H   0  0  0  0  0  0  0  0  0  0  0  0
   -5.3036   -0.4001   -0.0149 H   0  0  0  0  0  0  0  0  0  0  0  0
   -4.2643    0.0571    1.3449 H   0  0  0  0  0  0  0  0  0  0  0  0
   -3.8457   -1.3365    0.3270 H   0  0  0  0  0  0  0  0  0  0  0  0
  1  2  1  0
  2  3  1  0
  3  4  1  0
  4  5  1  0
  5  6  1  0
  6  7  1  0
  7  8  1  0
  8  9  1  0
  1 10  1  0
  1 11  1  0
  1 12  1  0
  2 13  1  0
  2 14  1  0
  3 15  1  0
  3 16  1  0
  4 17  1  0
  4 18  1  0
  6 19  1  0
  6 20  1  0
  7 21  1  0
  7 22  1  0
  8 23  1  0
  8 24  1  0
  9 25  1  0
  9 26  1  0
  9 27  1  0
M  END
>  <Energy>  (8) 
1.5448677897627994

>  <Real charge>  (8) 
0

>  <Mult>  (8) 
1

$$$$
mol_924 427
     RDKit          3D

 27 26  0  0  0  0  0  0  0  0999 V2000
   -3.6431    1.2201    0.3581 C   0  0  0  0  0  0  0  0  0  0  0  0
   -2.2681    0.8164   -0.1506 C   0  0  0  0  0  0  0  0  0  0  0  0
   -2.2337   -0.6584   -0.5584 C   0  0  0  0  0  0  0  0  0  0  0  0
   -0.8702   -1.0729   -1.1033 C   0  0  0  0  0  0  0  0  0  0  0  0
    0.1066   -0.9421   -0.0734 O   0  0  0  0  0  0  0  0  0  0  0  0
    1.4105   -1.2921   -0.5295 C   0  0  0  0  0  0  0  0  0  0  0  0
    2.4107   -1.1086    0.6088 C   0  0  0  0  0  0  0  0  0  0  0  0
    2.4502    0.3059    1.1958 C   0  0  0  0  0  0  0  0  0  0  0  0
    2.8789    1.3660    0.1934 C   0  0  0  0  0  0  0  0  0  0  0  0
   -3.9250    0.6306    1.2364 H   0  0  0  0  0  0  0  0  0  0  0  0
   -4.4056    1.0738   -0.4137 H   0  0  0  0  0  0  0  0  0  0  0  0
   -3.6466    2.2769    0.6428 H   0  0  0  0  0  0  0  0  0  0  0  0
   -2.0037    1.4451   -1.0088 H   0  0  0  0  0  0  0  0  0  0  0  0
   -1.5274    1.0102    0.6337 H   0  0  0  0  0  0  0  0  0  0  0  0
   -2.9974   -0.8489   -1.3213 H   0  0  0  0  0  0  0  0  0  0  0  0
   -2.4761   -1.2740    0.3165 H   0  0  0  0  0  0  0  0  0  0  0  0
   -0.9109   -2.1176   -1.4319 H   0  0  0  0  0  0  0  0  0  0  0  0
   -0.5967   -0.4442   -1.9585 H   0  0  0  0  0  0  0  0  0  0  0  0
    1.4130   -2.3413   -0.8471 H   0  0  0  0  0  0  0  0  0  0  0  0
    1.6853   -0.6721   -1.3897 H   0  0  0  0  0  0  0  0  0  0  0  0
    3.4106   -1.3924    0.2606 H   0  0  0  0  0  0  0  0  0  0  0  0
    2.1448   -1.7958    1.4217 H   0  0  0  0  0  0  0  0  0  0  0  0
    3.1566    0.3122    2.0346 H   0  0  0  0  0  0  0  0  0  0  0  0
    1.4709    0.5722    1.6099 H   0  0  0  0  0  0  0  0  0  0  0  0
    2.9866    2.3339    0.6936 H   0  0  0  0  0  0  0  0  0  0  0  0
    2.1389    1.4864   -0.6033 H   0  0  0  0  0  0  0  0  0  0  0  0
    3.8411    1.1109   -0.2616 H   0  0  0  0  0  0  0  0  0  0  0  0
  1  2  1  0
  2  3  1  0
  3  4  1  0
  4  5  1  0
  5  6  1  0
  6  7  1  0
  7  8  1  0
  8  9  1  0
  1 10  1  0
  1 11  1  0
  1 12  1  0
  2 13  1  0
  2 14  1  0
  3 15  1  0
  3 16  1  0
  4 17  1  0
  4 18  1  0
  6 19  1  0
  6 20  1  0
  7 21  1  0
  7 22  1  0
  8 23  1  0
  8 24  1  0
  9 25  1  0
  9 26  1  0
  9 27  1  0
M  END
>  <Energy>  (9) 
1.5456812747405972

>  <Real charge>  (9) 
0

>  <Mult>  (9) 
1

$$$$
