mol_1097 8
     RDKit          3D

 24 25  0  0  0  0  0  0  0  0999 V2000
    0.3475    2.4256    0.7424 O   0  0  0  0  0  0  0  0  0  0  0  0
    0.1782    1.2443    0.4505 C   0  0  0  0  0  0  0  0  0  0  0  0
    1.3610    0.3626    0.2814 C   0  0  0  0  0  0  0  0  0  0  0  0
    1.3906   -0.6518   -0.6834 C   0  0  0  0  0  0  0  0  0  0  0  0
    2.5279   -1.4509   -0.8183 C   0  0  0  0  0  0  0  0  0  0  0  0
    3.6379   -1.2316   -0.0019 C   0  0  0  0  0  0  0  0  0  0  0  0
    3.6190   -0.2078    0.9452 C   0  0  0  0  0  0  0  0  0  0  0  0
    2.4848    0.5934    1.0834 C   0  0  0  0  0  0  0  0  0  0  0  0
   -1.2043    0.7317    0.2751 C   0  0  0  0  0  0  0  0  0  0  0  0
   -1.5646   -0.5628    0.6695 C   0  0  0  0  0  0  0  0  0  0  0  0
   -2.8793   -1.0017    0.4985 C   0  0  0  0  0  0  0  0  0  0  0  0
   -3.8355   -0.1484   -0.0529 C   0  0  0  0  0  0  0  0  0  0  0  0
   -3.4842    1.1486   -0.4266 C   0  0  0  0  0  0  0  0  0  0  0  0
   -2.1718    1.5917   -0.2573 C   0  0  0  0  0  0  0  0  0  0  0  0
    0.5468   -0.8196   -1.3476 H   0  0  0  0  0  0  0  0  0  0  0  0
    2.5533   -2.2388   -1.5673 H   0  0  0  0  0  0  0  0  0  0  0  0
    4.5242   -1.8519   -0.1117 H   0  0  0  0  0  0  0  0  0  0  0  0
    4.4893   -0.0282    1.5716 H   0  0  0  0  0  0  0  0  0  0  0  0
    2.4776    1.3987    1.8154 H   0  0  0  0  0  0  0  0  0  0  0  0
   -0.8407   -1.2322    1.1268 H   0  0  0  0  0  0  0  0  0  0  0  0
   -3.1613   -2.0062    0.8046 H   0  0  0  0  0  0  0  0  0  0  0  0
   -4.8598   -0.4906   -0.1809 H   0  0  0  0  0  0  0  0  0  0  0  0
   -4.2329    1.8178   -0.8433 H   0  0  0  0  0  0  0  0  0  0  0  0
   -1.9036    2.6080   -0.5393 H   0  0  0  0  0  0  0  0  0  0  0  0
  1  2  2  0
  2  3  1  0
  3  4  2  0
  4  5  1  0
  5  6  2  0
  6  7  1  0
  7  8  2  0
  2  9  1  0
  9 10  2  0
 10 11  1  0
 11 12  2  0
 12 13  1  0
 13 14  2  0
  8  3  1  0
 14  9  1  0
  4 15  1  0
  5 16  1  0
  6 17  1  0
  7 18  1  0
  8 19  1  0
 10 20  1  0
 11 21  1  0
 12 22  1  0
 13 23  1  0
 14 24  1  0
M  END
>  <Energy>  (1) 
70.37662794454262

>  <Real charge>  (1) 
0

>  <Mult>  (1) 
1

$$$$
