mol_655 39
     RDKit          3D

 14 14  0  0  0  0  0  0  0  0999 V2000
   -3.5463   -0.5802    0.2925 Cl  0  0  0  0  0  0  0  0  0  0  0  0
   -1.8323   -0.2998    0.1511 C   0  0  0  0  0  0  0  0  0  0  0  0
   -1.3364    1.0210    0.1139 C   0  0  0  0  0  0  0  0  0  0  0  0
   -2.4347    2.3690    0.2090 Cl  0  0  0  0  0  0  0  0  0  0  0  0
    0.0451    1.2505   -0.0000 C   0  0  0  0  0  0  0  0  0  0  0  0
    0.6746    2.8700   -0.0474 Cl  0  0  0  0  0  0  0  0  0  0  0  0
    0.9029    0.1477   -0.0745 C   0  0  0  0  0  0  0  0  0  0  0  0
    2.3188    0.3794   -0.1913 N   0  0  0  0  0  4  0  0  0  0  0  0
    2.9552    0.4652    0.8650 O   0  0  0  0  0  1  0  0  0  0  0  0
    2.7725    0.4718   -1.3374 O   0  0  0  0  0  0  0  0  0  0  0  0
    0.4380   -1.1715   -0.0398 C   0  0  0  0  0  0  0  0  0  0  0  0
    1.5469   -2.5066   -0.1358 Cl  0  0  0  0  0  0  0  0  0  0  0  0
   -0.9445   -1.3941    0.0742 C   0  0  0  0  0  0  0  0  0  0  0  0
   -1.5599   -3.0225    0.1204 Cl  0  0  0  0  0  0  0  0  0  0  0  0
  1  2  1  0
  2  3  2  0
  3  4  1  0
  3  5  1  0
  5  6  1  0
  5  7  2  0
  7  8  1  0
  8  9  1  0
  8 10  2  0
  7 11  1  0
 11 12  1  0
 11 13  2  0
 13 14  1  0
 13  2  1  0
M  CHG  2   8   1   9  -1
M  END
>  <Energy>  (1) 
15.298584160813341

>  <Real charge>  (1) 
0

>  <Mult>  (1) 
1

$$$$
