mol_162 315
     RDKit          3D

 47 49  0  0  0  0  0  0  0  0999 V2000
   -5.2305    4.0057    1.8426 C   0  0  0  0  0  0  0  0  0  0  0  0
   -4.2457    2.9470    1.4438 C   0  0  0  0  0  0  0  0  0  0  0  0
   -4.5299    1.5948    1.6612 C   0  0  0  0  0  0  0  0  0  0  0  0
   -3.6247    0.6110    1.2584 C   0  0  0  0  0  0  0  0  0  0  0  0
   -2.4323    0.9663    0.6280 C   0  0  0  0  0  0  0  0  0  0  0  0
   -1.6148   -0.0687    0.2759 O   0  0  0  0  0  0  0  0  0  0  0  0
   -0.1390    0.0959   -0.3553 P   0  0  0  0  0  5  0  0  0  0  0  0
   -0.0755    0.8636   -1.6468 O   0  0  0  0  0  0  0  0  0  0  0  0
    0.7135    0.7277    0.8607 O   0  0  0  0  0  0  0  0  0  0  0  0
    2.0645    0.9268    0.8440 C   0  0  0  0  0  0  0  0  0  0  0  0
    2.6259    1.3745    2.0397 C   0  0  0  0  0  0  0  0  0  0  0  0
    3.9972    1.6095    2.1260 C   0  0  0  0  0  0  0  0  0  0  0  0
    4.8114    1.3943    1.0147 C   0  0  0  0  0  0  0  0  0  0  0  0
    4.2601    0.9350   -0.1874 C   0  0  0  0  0  0  0  0  0  0  0  0
    5.1286    0.7403   -1.3958 C   0  0  0  0  0  0  0  0  0  0  0  0
    2.8767    0.7156   -0.2696 C   0  0  0  0  0  0  0  0  0  0  0  0
    0.4013   -1.4212   -0.4308 O   0  0  0  0  0  0  0  0  0  0  0  0
   -0.0838   -2.3952   -1.2594 C   0  0  0  0  0  0  0  0  0  0  0  0
   -1.0878   -2.1695   -2.2021 C   0  0  0  0  0  0  0  0  0  0  0  0
   -1.5342   -3.2154   -3.0119 C   0  0  0  0  0  0  0  0  0  0  0  0
   -0.9795   -4.4859   -2.8832 C   0  0  0  0  0  0  0  0  0  0  0  0
    0.0263   -4.7145   -1.9450 C   0  0  0  0  0  0  0  0  0  0  0  0
    0.4849   -3.6730   -1.1259 C   0  0  0  0  0  0  0  0  0  0  0  0
    1.5715   -3.9317   -0.1200 C   0  0  0  0  0  0  0  0  0  0  0  0
   -2.1485    2.3082    0.3909 C   0  0  0  0  0  0  0  0  0  0  0  0
   -3.0552    3.2938    0.7940 C   0  0  0  0  0  0  0  0  0  0  0  0
   -4.7181    4.9393    2.0975 H   0  0  0  0  0  0  0  0  0  0  0  0
   -5.9274    4.1970    1.0209 H   0  0  0  0  0  0  0  0  0  0  0  0
   -5.8000    3.6967    2.7254 H   0  0  0  0  0  0  0  0  0  0  0  0
   -5.4575    1.2979    2.1454 H   0  0  0  0  0  0  0  0  0  0  0  0
   -3.8543   -0.4364    1.4371 H   0  0  0  0  0  0  0  0  0  0  0  0
    1.9942    1.5440    2.9079 H   0  0  0  0  0  0  0  0  0  0  0  0
    4.4304    1.9635    3.0577 H   0  0  0  0  0  0  0  0  0  0  0  0
    5.8790    1.5889    1.0910 H   0  0  0  0  0  0  0  0  0  0  0  0
    4.7509   -0.0769   -2.0193 H   0  0  0  0  0  0  0  0  0  0  0  0
    6.1517    0.4799   -1.1049 H   0  0  0  0  0  0  0  0  0  0  0  0
    5.1532    1.6586   -1.9904 H   0  0  0  0  0  0  0  0  0  0  0  0
    2.4601    0.3862   -1.2177 H   0  0  0  0  0  0  0  0  0  0  0  0
   -1.5403   -1.1918   -2.3384 H   0  0  0  0  0  0  0  0  0  0  0  0
   -2.3150   -3.0354   -3.7468 H   0  0  0  0  0  0  0  0  0  0  0  0
   -1.3282   -5.2984   -3.5156 H   0  0  0  0  0  0  0  0  0  0  0  0
    0.4516   -5.7118   -1.8578 H   0  0  0  0  0  0  0  0  0  0  0  0
    2.4377   -3.2943   -0.3255 H   0  0  0  0  0  0  0  0  0  0  0  0
    1.9101   -4.9726   -0.1526 H   0  0  0  0  0  0  0  0  0  0  0  0
    1.2054   -3.7323    0.8924 H   0  0  0  0  0  0  0  0  0  0  0  0
   -1.2398    2.6247   -0.1124 H   0  0  0  0  0  0  0  0  0  0  0  0
   -2.8245    4.3382    0.5934 H   0  0  0  0  0  0  0  0  0  0  0  0
  1  2  1  0
  2  3  2  0
  3  4  1  0
  4  5  2  0
  5  6  1  0
  6  7  1  0
  7  8  2  0
  7  9  1  0
  9 10  1  0
 10 11  2  0
 11 12  1  0
 12 13  2  0
 13 14  1  0
 14 15  1  0
 14 16  2  0
  7 17  1  0
 17 18  1  0
 18 19  2  0
 19 20  1  0
 20 21  2  0
 21 22  1  0
 22 23  2  0
 23 24  1  0
  5 25  1  0
 25 26  2  0
 26  2  1  0
 16 10  1  0
 23 18  1  0
  1 27  1  0
  1 28  1  0
  1 29  1  0
  3 30  1  0
  4 31  1  0
 11 32  1  0
 12 33  1  0
 13 34  1  0
 15 35  1  0
 15 36  1  0
 15 37  1  0
 16 38  1  0
 19 39  1  0
 20 40  1  0
 21 41  1  0
 22 42  1  0
 24 43  1  0
 24 44  1  0
 24 45  1  0
 25 46  1  0
 26 47  1  0
M  END
>  <Energy>  (1) 
47.7927794325516

>  <Real charge>  (1) 
0

>  <Mult>  (1) 
1

$$$$
mol_162 296
     RDKit          3D

 47 49  0  0  0  0  0  0  0  0999 V2000
    6.8531    0.1672    0.1069 C   0  0  0  0  0  0  0  0  0  0  0  0
    5.3790   -0.1095    0.0976 C   0  0  0  0  0  0  0  0  0  0  0  0
    4.4781    0.8590   -0.3611 C   0  0  0  0  0  0  0  0  0  0  0  0
    3.1054    0.5946   -0.4024 C   0  0  0  0  0  0  0  0  0  0  0  0
    2.6257   -0.6462    0.0074 C   0  0  0  0  0  0  0  0  0  0  0  0
    1.3077   -1.0019    0.0068 O   0  0  0  0  0  0  0  0  0  0  0  0
    0.0855   -0.0098   -0.3472 P   0  0  0  0  0  5  0  0  0  0  0  0
    0.1373    0.6092   -1.7166 O   0  0  0  0  0  0  0  0  0  0  0  0
    0.0940    1.0381    0.8801 O   0  0  0  0  0  0  0  0  0  0  0  0
   -0.8498    2.0031    1.0873 C   0  0  0  0  0  0  0  0  0  0  0  0
   -0.7240    2.7293    2.2715 C   0  0  0  0  0  0  0  0  0  0  0  0
   -1.6452    3.7281    2.5828 C   0  0  0  0  0  0  0  0  0  0  0  0
   -2.6921    4.0074    1.7053 C   0  0  0  0  0  0  0  0  0  0  0  0
   -2.8166    3.2980    0.5048 C   0  0  0  0  0  0  0  0  0  0  0  0
   -3.9582    3.5781   -0.4283 C   0  0  0  0  0  0  0  0  0  0  0  0
   -1.8935    2.2844    0.2064 C   0  0  0  0  0  0  0  0  0  0  0  0
   -1.2184   -0.9102   -0.0495 O   0  0  0  0  0  0  0  0  0  0  0  0
   -1.6079   -2.0046   -0.7714 C   0  0  0  0  0  0  0  0  0  0  0  0
   -0.9408   -2.4453   -1.9152 C   0  0  0  0  0  0  0  0  0  0  0  0
   -1.3963   -3.5740   -2.5989 C   0  0  0  0  0  0  0  0  0  0  0  0
   -2.5173   -4.2629   -2.1436 C   0  0  0  0  0  0  0  0  0  0  0  0
   -3.1887   -3.8235   -1.0033 C   0  0  0  0  0  0  0  0  0  0  0  0
   -2.7427   -2.6909   -0.3075 C   0  0  0  0  0  0  0  0  0  0  0  0
   -3.4766   -2.2260    0.9192 C   0  0  0  0  0  0  0  0  0  0  0  0
    3.5182   -1.6230    0.4485 C   0  0  0  0  0  0  0  0  0  0  0  0
    4.8887   -1.3592    0.4901 C   0  0  0  0  0  0  0  0  0  0  0  0
    7.2930   -0.1157   -0.8543 H   0  0  0  0  0  0  0  0  0  0  0  0
    7.0499    1.2291    0.2879 H   0  0  0  0  0  0  0  0  0  0  0  0
    7.3511   -0.3954    0.9036 H   0  0  0  0  0  0  0  0  0  0  0  0
    4.8397    1.8300   -0.6937 H   0  0  0  0  0  0  0  0  0  0  0  0
    2.4453    1.3752   -0.7687 H   0  0  0  0  0  0  0  0  0  0  0  0
    0.0904    2.5139    2.9584 H   0  0  0  0  0  0  0  0  0  0  0  0
   -1.5482    4.2871    3.5098 H   0  0  0  0  0  0  0  0  0  0  0  0
   -3.4087    4.7848    1.9614 H   0  0  0  0  0  0  0  0  0  0  0  0
   -4.2877    4.6189   -0.3432 H   0  0  0  0  0  0  0  0  0  0  0  0
   -4.8013    2.9206   -0.1951 H   0  0  0  0  0  0  0  0  0  0  0  0
   -3.6590    3.4169   -1.4693 H   0  0  0  0  0  0  0  0  0  0  0  0
   -2.0097    1.7359   -0.7244 H   0  0  0  0  0  0  0  0  0  0  0  0
   -0.0678   -1.9315   -2.3065 H   0  0  0  0  0  0  0  0  0  0  0  0
   -0.8754   -3.9132   -3.4909 H   0  0  0  0  0  0  0  0  0  0  0  0
   -2.8706   -5.1409   -2.6783 H   0  0  0  0  0  0  0  0  0  0  0  0
   -4.0643   -4.3707   -0.6612 H   0  0  0  0  0  0  0  0  0  0  0  0
   -2.8142   -2.2551    1.7904 H   0  0  0  0  0  0  0  0  0  0  0  0
   -3.8446   -1.2047    0.7763 H   0  0  0  0  0  0  0  0  0  0  0  0
   -4.3406   -2.8628    1.1364 H   0  0  0  0  0  0  0  0  0  0  0  0
    3.1484   -2.5965    0.7606 H   0  0  0  0  0  0  0  0  0  0  0  0
    5.5697   -2.1358    0.8309 H   0  0  0  0  0  0  0  0  0  0  0  0
  1  2  1  0
  2  3  2  0
  3  4  1  0
  4  5  2  0
  5  6  1  0
  6  7  1  0
  7  8  2  0
  7  9  1  0
  9 10  1  0
 10 11  2  0
 11 12  1  0
 12 13  2  0
 13 14  1  0
 14 15  1  0
 14 16  2  0
  7 17  1  0
 17 18  1  0
 18 19  2  0
 19 20  1  0
 20 21  2  0
 21 22  1  0
 22 23  2  0
 23 24  1  0
  5 25  1  0
 25 26  2  0
 26  2  1  0
 16 10  1  0
 23 18  1  0
  1 27  1  0
  1 28  1  0
  1 29  1  0
  3 30  1  0
  4 31  1  0
 11 32  1  0
 12 33  1  0
 13 34  1  0
 15 35  1  0
 15 36  1  0
 15 37  1  0
 16 38  1  0
 19 39  1  0
 20 40  1  0
 21 41  1  0
 22 42  1  0
 24 43  1  0
 24 44  1  0
 24 45  1  0
 25 46  1  0
 26 47  1  0
M  END
>  <Energy>  (2) 
47.81039031709492

>  <Real charge>  (2) 
0

>  <Mult>  (2) 
1

$$$$
mol_162 279
     RDKit          3D

 47 49  0  0  0  0  0  0  0  0999 V2000
    5.6101   -2.8306   -0.5749 C   0  0  0  0  0  0  0  0  0  0  0  0
    4.3054   -2.0921   -0.6179 C   0  0  0  0  0  0  0  0  0  0  0  0
    3.5624   -1.8953    0.5522 C   0  0  0  0  0  0  0  0  0  0  0  0
    2.3615   -1.1793    0.5233 C   0  0  0  0  0  0  0  0  0  0  0  0
    1.9001   -0.6474   -0.6774 C   0  0  0  0  0  0  0  0  0  0  0  0
    0.7416    0.0624   -0.8116 O   0  0  0  0  0  0  0  0  0  0  0  0
   -0.3408    0.2882    0.3639 P   0  0  0  0  0  5  0  0  0  0  0  0
    0.1815    0.9887    1.5878 O   0  0  0  0  0  0  0  0  0  0  0  0
   -1.5547    1.0358   -0.3917 O   0  0  0  0  0  0  0  0  0  0  0  0
   -1.4929    2.2979   -0.9096 C   0  0  0  0  0  0  0  0  0  0  0  0
   -2.6180    2.7170   -1.6195 C   0  0  0  0  0  0  0  0  0  0  0  0
   -2.6566    3.9906   -2.1847 C   0  0  0  0  0  0  0  0  0  0  0  0
   -1.5665    4.8484   -2.0424 C   0  0  0  0  0  0  0  0  0  0  0  0
   -0.4278    4.4342   -1.3411 C   0  0  0  0  0  0  0  0  0  0  0  0
    0.7303    5.3701   -1.1533 C   0  0  0  0  0  0  0  0  0  0  0  0
   -0.4035    3.1558   -0.7631 C   0  0  0  0  0  0  0  0  0  0  0  0
   -0.9208   -1.1948    0.6163 O   0  0  0  0  0  0  0  0  0  0  0  0
   -1.9454   -1.5111    1.4653 C   0  0  0  0  0  0  0  0  0  0  0  0
   -2.5735   -0.5766    2.2899 C   0  0  0  0  0  0  0  0  0  0  0  0
   -3.6158   -0.9738    3.1294 C   0  0  0  0  0  0  0  0  0  0  0  0
   -4.0316   -2.3024    3.1481 C   0  0  0  0  0  0  0  0  0  0  0  0
   -3.4042   -3.2397    2.3284 C   0  0  0  0  0  0  0  0  0  0  0  0
   -2.3554   -2.8548    1.4812 C   0  0  0  0  0  0  0  0  0  0  0  0
   -1.6859   -3.8753    0.6038 C   0  0  0  0  0  0  0  0  0  0  0  0
    2.6435   -0.8229   -1.8444 C   0  0  0  0  0  0  0  0  0  0  0  0
    3.8425   -1.5378   -1.8158 C   0  0  0  0  0  0  0  0  0  0  0  0
    5.5968   -3.6016    0.2028 H   0  0  0  0  0  0  0  0  0  0  0  0
    6.4281   -2.1335   -0.3686 H   0  0  0  0  0  0  0  0  0  0  0  0
    5.8055   -3.3342   -1.5275 H   0  0  0  0  0  0  0  0  0  0  0  0
    3.9156   -2.2972    1.4998 H   0  0  0  0  0  0  0  0  0  0  0  0
    1.8212   -1.0494    1.4563 H   0  0  0  0  0  0  0  0  0  0  0  0
   -3.4701    2.0515   -1.7315 H   0  0  0  0  0  0  0  0  0  0  0  0
   -3.5371    4.3157   -2.7325 H   0  0  0  0  0  0  0  0  0  0  0  0
   -1.6109    5.8432   -2.4803 H   0  0  0  0  0  0  0  0  0  0  0  0
    0.6066    5.9364   -0.2251 H   0  0  0  0  0  0  0  0  0  0  0  0
    1.6747    4.8175   -1.1094 H   0  0  0  0  0  0  0  0  0  0  0  0
    0.8048    6.0734   -1.9893 H   0  0  0  0  0  0  0  0  0  0  0  0
    0.4763    2.8596   -0.1984 H   0  0  0  0  0  0  0  0  0  0  0  0
   -2.2735    0.4669    2.3105 H   0  0  0  0  0  0  0  0  0  0  0  0
   -4.1013   -0.2435    3.7721 H   0  0  0  0  0  0  0  0  0  0  0  0
   -4.8428   -2.6094    3.8033 H   0  0  0  0  0  0  0  0  0  0  0  0
   -3.7385   -4.2744    2.3559 H   0  0  0  0  0  0  0  0  0  0  0  0
   -1.8089   -3.6070   -0.4505 H   0  0  0  0  0  0  0  0  0  0  0  0
   -0.6189   -3.9375    0.8410 H   0  0  0  0  0  0  0  0  0  0  0  0
   -2.1162   -4.8722    0.7461 H   0  0  0  0  0  0  0  0  0  0  0  0
    2.2912   -0.4009   -2.7822 H   0  0  0  0  0  0  0  0  0  0  0  0
    4.4117   -1.6586   -2.7347 H   0  0  0  0  0  0  0  0  0  0  0  0
  1  2  1  0
  2  3  2  0
  3  4  1  0
  4  5  2  0
  5  6  1  0
  6  7  1  0
  7  8  2  0
  7  9  1  0
  9 10  1  0
 10 11  2  0
 11 12  1  0
 12 13  2  0
 13 14  1  0
 14 15  1  0
 14 16  2  0
  7 17  1  0
 17 18  1  0
 18 19  2  0
 19 20  1  0
 20 21  2  0
 21 22  1  0
 22 23  2  0
 23 24  1  0
  5 25  1  0
 25 26  2  0
 26  2  1  0
 16 10  1  0
 23 18  1  0
  1 27  1  0
  1 28  1  0
  1 29  1  0
  3 30  1  0
  4 31  1  0
 11 32  1  0
 12 33  1  0
 13 34  1  0
 15 35  1  0
 15 36  1  0
 15 37  1  0
 16 38  1  0
 19 39  1  0
 20 40  1  0
 21 41  1  0
 22 42  1  0
 24 43  1  0
 24 44  1  0
 24 45  1  0
 25 46  1  0
 26 47  1  0
M  END
>  <Energy>  (3) 
47.81228472029119

>  <Real charge>  (3) 
0

>  <Mult>  (3) 
1

$$$$
mol_162 127
     RDKit          3D

 47 49  0  0  0  0  0  0  0  0999 V2000
    6.0530   -0.2540    1.7607 C   0  0  0  0  0  0  0  0  0  0  0  0
    4.6351   -0.3986    1.2936 C   0  0  0  0  0  0  0  0  0  0  0  0
    3.6397    0.4632    1.7694 C   0  0  0  0  0  0  0  0  0  0  0  0
    2.3221    0.3521    1.3143 C   0  0  0  0  0  0  0  0  0  0  0  0
    1.9942   -0.6158    0.3692 C   0  0  0  0  0  0  0  0  0  0  0  0
    0.7415   -0.8027   -0.1405 O   0  0  0  0  0  0  0  0  0  0  0  0
   -0.5312    0.1375    0.1768 P   0  0  0  0  0  5  0  0  0  0  0  0
   -0.9137    0.2272    1.6283 O   0  0  0  0  0  0  0  0  0  0  0  0
   -1.6737   -0.4465   -0.8014 O   0  0  0  0  0  0  0  0  0  0  0  0
   -2.2482   -1.6796   -0.6821 C   0  0  0  0  0  0  0  0  0  0  0  0
   -3.1385   -2.0336   -1.6957 C   0  0  0  0  0  0  0  0  0  0  0  0
   -3.7813   -3.2701   -1.6645 C   0  0  0  0  0  0  0  0  0  0  0  0
   -3.5323   -4.1576   -0.6183 C   0  0  0  0  0  0  0  0  0  0  0  0
   -2.6324   -3.8170    0.3986 C   0  0  0  0  0  0  0  0  0  0  0  0
   -2.3931   -4.7545    1.5459 C   0  0  0  0  0  0  0  0  0  0  0  0
   -2.0010   -2.5643    0.3668 C   0  0  0  0  0  0  0  0  0  0  0  0
   -0.1325    1.5377   -0.5161 O   0  0  0  0  0  0  0  0  0  0  0  0
   -0.9410    2.6374   -0.6028 C   0  0  0  0  0  0  0  0  0  0  0  0
   -2.2072    2.7055   -0.0200 C   0  0  0  0  0  0  0  0  0  0  0  0
   -2.9771    3.8623   -0.1534 C   0  0  0  0  0  0  0  0  0  0  0  0
   -2.4849    4.9520   -0.8667 C   0  0  0  0  0  0  0  0  0  0  0  0
   -1.2187    4.8893   -1.4474 C   0  0  0  0  0  0  0  0  0  0  0  0
   -0.4344    3.7341   -1.3203 C   0  0  0  0  0  0  0  0  0  0  0  0
    0.9296    3.6798   -1.9495 C   0  0  0  0  0  0  0  0  0  0  0  0
    2.9819   -1.4717   -0.1178 C   0  0  0  0  0  0  0  0  0  0  0  0
    4.2976   -1.3608    0.3361 C   0  0  0  0  0  0  0  0  0  0  0  0
    6.0889    0.1100    2.7929 H   0  0  0  0  0  0  0  0  0  0  0  0
    6.5720   -1.2180    1.7386 H   0  0  0  0  0  0  0  0  0  0  0  0
    6.5886    0.4511    1.1177 H   0  0  0  0  0  0  0  0  0  0  0  0
    3.8825    1.2280    2.5045 H   0  0  0  0  0  0  0  0  0  0  0  0
    1.5812    1.0333    1.7223 H   0  0  0  0  0  0  0  0  0  0  0  0
   -3.3360   -1.3438   -2.5123 H   0  0  0  0  0  0  0  0  0  0  0  0
   -4.4785   -3.5403   -2.4532 H   0  0  0  0  0  0  0  0  0  0  0  0
   -4.0459   -5.1164   -0.5997 H   0  0  0  0  0  0  0  0  0  0  0  0
   -3.0903   -4.5344    2.3602 H   0  0  0  0  0  0  0  0  0  0  0  0
   -2.5293   -5.7958    1.2356 H   0  0  0  0  0  0  0  0  0  0  0  0
   -1.3683   -4.6591    1.9199 H   0  0  0  0  0  0  0  0  0  0  0  0
   -1.3266   -2.3038    1.1780 H   0  0  0  0  0  0  0  0  0  0  0  0
   -2.6235    1.8806    0.5507 H   0  0  0  0  0  0  0  0  0  0  0  0
   -3.9622    3.9126    0.3039 H   0  0  0  0  0  0  0  0  0  0  0  0
   -3.0858    5.8521   -0.9685 H   0  0  0  0  0  0  0  0  0  0  0  0
   -0.8469    5.7495   -1.9995 H   0  0  0  0  0  0  0  0  0  0  0  0
    0.9723    2.8763   -2.6919 H   0  0  0  0  0  0  0  0  0  0  0  0
    1.1750    4.6175   -2.4591 H   0  0  0  0  0  0  0  0  0  0  0  0
    1.6935    3.5083   -1.1841 H   0  0  0  0  0  0  0  0  0  0  0  0
    2.7302   -2.2274   -0.8576 H   0  0  0  0  0  0  0  0  0  0  0  0
    5.0557   -2.0318   -0.0615 H   0  0  0  0  0  0  0  0  0  0  0  0
  1  2  1  0
  2  3  2  0
  3  4  1  0
  4  5  2  0
  5  6  1  0
  6  7  1  0
  7  8  2  0
  7  9  1  0
  9 10  1  0
 10 11  2  0
 11 12  1  0
 12 13  2  0
 13 14  1  0
 14 15  1  0
 14 16  2  0
  7 17  1  0
 17 18  1  0
 18 19  2  0
 19 20  1  0
 20 21  2  0
 21 22  1  0
 22 23  2  0
 23 24  1  0
  5 25  1  0
 25 26  2  0
 26  2  1  0
 16 10  1  0
 23 18  1  0
  1 27  1  0
  1 28  1  0
  1 29  1  0
  3 30  1  0
  4 31  1  0
 11 32  1  0
 12 33  1  0
 13 34  1  0
 15 35  1  0
 15 36  1  0
 15 37  1  0
 16 38  1  0
 19 39  1  0
 20 40  1  0
 21 41  1  0
 22 42  1  0
 24 43  1  0
 24 44  1  0
 24 45  1  0
 25 46  1  0
 26 47  1  0
M  END
>  <Energy>  (4) 
47.82581474018602

>  <Real charge>  (4) 
0

>  <Mult>  (4) 
1

$$$$
mol_162 404
     RDKit          3D

 47 49  0  0  0  0  0  0  0  0999 V2000
    6.4249   -1.4224   -0.1288 C   0  0  0  0  0  0  0  0  0  0  0  0
    4.9323   -1.2754   -0.1463 C   0  0  0  0  0  0  0  0  0  0  0  0
    4.1552   -2.0275   -1.0334 C   0  0  0  0  0  0  0  0  0  0  0  0
    2.7638   -1.9116   -1.0235 C   0  0  0  0  0  0  0  0  0  0  0  0
    2.1349   -1.0513   -0.1237 C   0  0  0  0  0  0  0  0  0  0  0  0
    0.7723   -1.0066   -0.1969 O   0  0  0  0  0  0  0  0  0  0  0  0
   -0.1618    0.0032    0.6470 P   0  0  0  0  0  5  0  0  0  0  0  0
   -0.0493   -0.1200    2.1414 O   0  0  0  0  0  0  0  0  0  0  0  0
   -1.6336   -0.2651    0.0429 O   0  0  0  0  0  0  0  0  0  0  0  0
   -2.3402   -1.4238    0.1945 C   0  0  0  0  0  0  0  0  0  0  0  0
   -1.9298   -2.4966    0.9809 C   0  0  0  0  0  0  0  0  0  0  0  0
   -2.7323   -3.6355    1.0720 C   0  0  0  0  0  0  0  0  0  0  0  0
   -3.9404   -3.7039    0.3769 C   0  0  0  0  0  0  0  0  0  0  0  0
   -4.3552   -2.6355   -0.4248 C   0  0  0  0  0  0  0  0  0  0  0  0
   -5.6697   -2.6885   -1.1448 C   0  0  0  0  0  0  0  0  0  0  0  0
   -3.5513   -1.4908   -0.4987 C   0  0  0  0  0  0  0  0  0  0  0  0
    0.2258    1.4481    0.0457 O   0  0  0  0  0  0  0  0  0  0  0  0
   -0.3750    2.6314    0.3770 C   0  0  0  0  0  0  0  0  0  0  0  0
   -1.3654    2.7407    1.3542 C   0  0  0  0  0  0  0  0  0  0  0  0
   -1.9352    3.9835    1.6361 C   0  0  0  0  0  0  0  0  0  0  0  0
   -1.5175    5.1178    0.9452 C   0  0  0  0  0  0  0  0  0  0  0  0
   -0.5256    5.0133   -0.0292 C   0  0  0  0  0  0  0  0  0  0  0  0
    0.0561    3.7715   -0.3217 C   0  0  0  0  0  0  0  0  0  0  0  0
    1.1259    3.6726   -1.3730 C   0  0  0  0  0  0  0  0  0  0  0  0
    2.8984   -0.3124    0.7756 C   0  0  0  0  0  0  0  0  0  0  0  0
    4.2920   -0.4284    0.7661 C   0  0  0  0  0  0  0  0  0  0  0  0
    6.7143   -2.2194    0.5630 H   0  0  0  0  0  0  0  0  0  0  0  0
    6.8053   -1.6642   -1.1269 H   0  0  0  0  0  0  0  0  0  0  0  0
    6.9055   -0.4896    0.1842 H   0  0  0  0  0  0  0  0  0  0  0  0
    4.6272   -2.7085   -1.7379 H   0  0  0  0  0  0  0  0  0  0  0  0
    2.1705   -2.4975   -1.7210 H   0  0  0  0  0  0  0  0  0  0  0  0
   -1.0014   -2.4774    1.5436 H   0  0  0  0  0  0  0  0  0  0  0  0
   -2.4167   -4.4706    1.6929 H   0  0  0  0  0  0  0  0  0  0  0  0
   -4.5563   -4.5960    0.4669 H   0  0  0  0  0  0  0  0  0  0  0  0
   -5.9241   -3.7178   -1.4185 H   0  0  0  0  0  0  0  0  0  0  0  0
   -5.6309   -2.1066   -2.0716 H   0  0  0  0  0  0  0  0  0  0  0  0
   -6.4623   -2.2859   -0.5066 H   0  0  0  0  0  0  0  0  0  0  0  0
   -3.8672   -0.6422   -1.1018 H   0  0  0  0  0  0  0  0  0  0  0  0
   -1.7128    1.8817    1.9205 H   0  0  0  0  0  0  0  0  0  0  0  0
   -2.7050    4.0652    2.3997 H   0  0  0  0  0  0  0  0  0  0  0  0
   -1.9620    6.0846    1.1673 H   0  0  0  0  0  0  0  0  0  0  0  0
   -0.2079    5.9087   -0.5587 H   0  0  0  0  0  0  0  0  0  0  0  0
    2.0514    3.2832   -0.9365 H   0  0  0  0  0  0  0  0  0  0  0  0
    0.8002    3.0122   -2.1833 H   0  0  0  0  0  0  0  0  0  0  0  0
    1.3512    4.6507   -1.8108 H   0  0  0  0  0  0  0  0  0  0  0  0
    2.4459    0.3544    1.5036 H   0  0  0  0  0  0  0  0  0  0  0  0
    4.8754    0.1481    1.4812 H   0  0  0  0  0  0  0  0  0  0  0  0
  1  2  1  0
  2  3  2  0
  3  4  1  0
  4  5  2  0
  5  6  1  0
  6  7  1  0
  7  8  2  0
  7  9  1  0
  9 10  1  0
 10 11  2  0
 11 12  1  0
 12 13  2  0
 13 14  1  0
 14 15  1  0
 14 16  2  0
  7 17  1  0
 17 18  1  0
 18 19  2  0
 19 20  1  0
 20 21  2  0
 21 22  1  0
 22 23  2  0
 23 24  1  0
  5 25  1  0
 25 26  2  0
 26  2  1  0
 16 10  1  0
 23 18  1  0
  1 27  1  0
  1 28  1  0
  1 29  1  0
  3 30  1  0
  4 31  1  0
 11 32  1  0
 12 33  1  0
 13 34  1  0
 15 35  1  0
 15 36  1  0
 15 37  1  0
 16 38  1  0
 19 39  1  0
 20 40  1  0
 21 41  1  0
 22 42  1  0
 24 43  1  0
 24 44  1  0
 24 45  1  0
 25 46  1  0
 26 47  1  0
M  END
>  <Energy>  (5) 
47.85757781956363

>  <Real charge>  (5) 
0

>  <Mult>  (5) 
1

$$$$
mol_162 516
     RDKit          3D

 47 49  0  0  0  0  0  0  0  0999 V2000
    5.4484   -3.7954    0.5412 C   0  0  0  0  0  0  0  0  0  0  0  0
    4.3592   -2.7643    0.5580 C   0  0  0  0  0  0  0  0  0  0  0  0
    4.2175   -1.8989    1.6477 C   0  0  0  0  0  0  0  0  0  0  0  0
    3.2228   -0.9191    1.6444 C   0  0  0  0  0  0  0  0  0  0  0  0
    2.3664   -0.7882    0.5514 C   0  0  0  0  0  0  0  0  0  0  0  0
    1.4270    0.1978    0.6471 O   0  0  0  0  0  0  0  0  0  0  0  0
    0.2576    0.4646   -0.4322 P   0  0  0  0  0  5  0  0  0  0  0  0
    0.7290    0.7578   -1.8297 O   0  0  0  0  0  0  0  0  0  0  0  0
   -0.6837   -0.8379   -0.2847 O   0  0  0  0  0  0  0  0  0  0  0  0
   -1.8813   -1.0094   -0.9183 C   0  0  0  0  0  0  0  0  0  0  0  0
   -2.3999   -0.1328   -1.8673 C   0  0  0  0  0  0  0  0  0  0  0  0
   -3.6349   -0.4042   -2.4590 C   0  0  0  0  0  0  0  0  0  0  0  0
   -4.3517   -1.5470   -2.1018 C   0  0  0  0  0  0  0  0  0  0  0  0
   -3.8436   -2.4275   -1.1410 C   0  0  0  0  0  0  0  0  0  0  0  0
   -4.5919   -3.6761   -0.7803 C   0  0  0  0  0  0  0  0  0  0  0  0
   -2.5969   -2.1555   -0.5633 C   0  0  0  0  0  0  0  0  0  0  0  0
   -0.6201    1.6293    0.2553 O   0  0  0  0  0  0  0  0  0  0  0  0
   -0.2053    2.9159    0.4637 C   0  0  0  0  0  0  0  0  0  0  0  0
    1.0261    3.4045    0.0248 C   0  0  0  0  0  0  0  0  0  0  0  0
    1.3822    4.7306    0.2773 C   0  0  0  0  0  0  0  0  0  0  0  0
    0.5109    5.5701    0.9660 C   0  0  0  0  0  0  0  0  0  0  0  0
   -0.7219    5.0867    1.4028 C   0  0  0  0  0  0  0  0  0  0  0  0
   -1.0928    3.7574    1.1552 C   0  0  0  0  0  0  0  0  0  0  0  0
   -2.4253    3.2489    1.6297 C   0  0  0  0  0  0  0  0  0  0  0  0
    2.5108   -1.6328   -0.5455 C   0  0  0  0  0  0  0  0  0  0  0  0
    3.5072   -2.6141   -0.5426 C   0  0  0  0  0  0  0  0  0  0  0  0
    5.6723   -4.1437    1.5550 H   0  0  0  0  0  0  0  0  0  0  0  0
    6.3576   -3.3720    0.1035 H   0  0  0  0  0  0  0  0  0  0  0  0
    5.1481   -4.6711   -0.0437 H   0  0  0  0  0  0  0  0  0  0  0  0
    4.8801   -1.9813    2.5062 H   0  0  0  0  0  0  0  0  0  0  0  0
    3.1193   -0.2552    2.4990 H   0  0  0  0  0  0  0  0  0  0  0  0
   -1.8678    0.7613   -2.1782 H   0  0  0  0  0  0  0  0  0  0  0  0
   -4.0369    0.2754   -3.2067 H   0  0  0  0  0  0  0  0  0  0  0  0
   -5.3082   -1.7464   -2.5799 H   0  0  0  0  0  0  0  0  0  0  0  0
   -4.2878   -4.4974   -1.4365 H   0  0  0  0  0  0  0  0  0  0  0  0
   -4.3968   -3.9617    0.2587 H   0  0  0  0  0  0  0  0  0  0  0  0
   -5.6723   -3.5263   -0.8781 H   0  0  0  0  0  0  0  0  0  0  0  0
   -2.1770   -2.8390    0.1716 H   0  0  0  0  0  0  0  0  0  0  0  0
    1.7299    2.7843   -0.5223 H   0  0  0  0  0  0  0  0  0  0  0  0
    2.3414    5.1084   -0.0681 H   0  0  0  0  0  0  0  0  0  0  0  0
    0.7900    6.6026    1.1605 H   0  0  0  0  0  0  0  0  0  0  0  0
   -1.3930    5.7553    1.9373 H   0  0  0  0  0  0  0  0  0  0  0  0
   -3.0225    2.9011    0.7805 H   0  0  0  0  0  0  0  0  0  0  0  0
   -2.2860    2.4255    2.3376 H   0  0  0  0  0  0  0  0  0  0  0  0
   -2.9967    4.0324    2.1385 H   0  0  0  0  0  0  0  0  0  0  0  0
    1.8757   -1.5517   -1.4227 H   0  0  0  0  0  0  0  0  0  0  0  0
    3.6146   -3.2610   -1.4111 H   0  0  0  0  0  0  0  0  0  0  0  0
  1  2  1  0
  2  3  2  0
  3  4  1  0
  4  5  2  0
  5  6  1  0
  6  7  1  0
  7  8  2  0
  7  9  1  0
  9 10  1  0
 10 11  2  0
 11 12  1  0
 12 13  2  0
 13 14  1  0
 14 15  1  0
 14 16  2  0
  7 17  1  0
 17 18  1  0
 18 19  2  0
 19 20  1  0
 20 21  2  0
 21 22  1  0
 22 23  2  0
 23 24  1  0
  5 25  1  0
 25 26  2  0
 26  2  1  0
 16 10  1  0
 23 18  1  0
  1 27  1  0
  1 28  1  0
  1 29  1  0
  3 30  1  0
  4 31  1  0
 11 32  1  0
 12 33  1  0
 13 34  1  0
 15 35  1  0
 15 36  1  0
 15 37  1  0
 16 38  1  0
 19 39  1  0
 20 40  1  0
 21 41  1  0
 22 42  1  0
 24 43  1  0
 24 44  1  0
 24 45  1  0
 25 46  1  0
 26 47  1  0
M  END
>  <Energy>  (6) 
47.85942127757917

>  <Real charge>  (6) 
0

>  <Mult>  (6) 
1

$$$$
