mol_1001 81
     RDKit          3D

 11 10  0  0  0  0  0  0  0  0999 V2000
   -1.5808    0.2129   -0.4225 C   0  0  0  0  0  0  0  0  0  0  0  0
   -0.2232   -0.4010   -0.1409 C   0  0  0  0  0  0  0  0  0  0  0  0
    0.7385    0.6574   -0.0561 O   0  0  0  0  0  0  0  0  0  0  0  0
    2.0025    0.2355    0.1947 C   0  0  0  0  0  0  0  0  0  0  0  0
    2.3691   -0.9184    0.3466 O   0  0  0  0  0  0  0  0  0  0  0  0
   -1.8587    0.9146    0.3709 H   0  0  0  0  0  0  0  0  0  0  0  0
   -2.3508   -0.5601   -0.4961 H   0  0  0  0  0  0  0  0  0  0  0  0
   -1.5601    0.7818   -1.3580 H   0  0  0  0  0  0  0  0  0  0  0  0
   -0.2547   -0.9490    0.8076 H   0  0  0  0  0  0  0  0  0  0  0  0
    0.0494   -1.0843   -0.9531 H   0  0  0  0  0  0  0  0  0  0  0  0
    2.6688    1.1106    0.2425 H   0  0  0  0  0  0  0  0  0  0  0  0
  1  2  1  0
  2  3  1  0
  3  4  1  0
  4  5  2  0
  1  6  1  0
  1  7  1  0
  1  8  1  0
  2  9  1  0
  2 10  1  0
  4 11  1  0
M  END
>  <Energy>  (1) 
-10.518484374047157

>  <Real charge>  (1) 
0

>  <Mult>  (1) 
1

$$$$
mol_1001 15
     RDKit          3D

 11 10  0  0  0  0  0  0  0  0999 V2000
   -1.3146   -0.3813    0.0649 C   0  0  0  0  0  0  0  0  0  0  0  0
   -0.2961    0.6513   -0.3807 C   0  0  0  0  0  0  0  0  0  0  0  0
    0.9233    0.0062   -0.7760 O   0  0  0  0  0  0  0  0  0  0  0  0
    1.8115   -0.2296    0.2210 C   0  0  0  0  0  0  0  0  0  0  0  0
    1.6755    0.0405    1.4029 O   0  0  0  0  0  0  0  0  0  0  0  0
   -1.4844   -1.1199   -0.7255 H   0  0  0  0  0  0  0  0  0  0  0  0
   -2.2670    0.0954    0.3130 H   0  0  0  0  0  0  0  0  0  0  0  0
   -0.9592   -0.9300    0.9427 H   0  0  0  0  0  0  0  0  0  0  0  0
   -0.1165    1.3996    0.3999 H   0  0  0  0  0  0  0  0  0  0  0  0
   -0.6742    1.1864   -1.2581 H   0  0  0  0  0  0  0  0  0  0  0  0
    2.7017   -0.7187   -0.2041 H   0  0  0  0  0  0  0  0  0  0  0  0
  1  2  1  0
  2  3  1  0
  3  4  1  0
  4  5  2  0
  1  6  1  0
  1  7  1  0
  1  8  1  0
  2  9  1  0
  2 10  1  0
  4 11  1  0
M  END
>  <Energy>  (2) 
-10.078548265647141

>  <Real charge>  (2) 
0

>  <Mult>  (2) 
1

$$$$
