mol_852 764
     RDKit          3D

 71 74  0  0  0  0  0  0  0  0999 V2000
   -7.4095    1.8666   -0.6756 C   0  0  0  0  0  0  0  0  0  0  0  0
   -5.9780    1.5586   -0.2650 C   0  0  0  0  0  0  0  0  0  0  0  0
   -5.9262    0.4551    0.7944 C   0  0  0  0  0  0  0  0  0  0  0  0
   -4.5010    0.1542    1.2563 C   0  0  0  0  0  0  0  0  0  0  0  0
   -3.6835   -0.5797    0.2198 C   0  0  0  0  0  0  0  0  0  0  0  0
   -4.1181   -1.1320   -0.7781 O   0  0  0  0  0  0  0  0  0  0  0  0
   -2.3721   -0.5750    0.5851 O   0  0  0  0  0  0  0  0  0  0  0  0
   -1.3940   -1.1666   -0.2906 C   0  0  0  0  0  0  0  0  0  0  0  0
   -1.1772   -0.3419   -1.6136 C   0  0  0  0  0  0  0  0  0  0  0  0
   -1.8600    1.0245   -1.7208 C   0  0  0  0  0  0  0  0  0  0  0  0
    0.3492   -0.1856   -1.7861 C   0  0  0  0  0  0  0  0  0  0  0  0
    1.0129   -1.0839   -0.7373 C   0  0  0  0  0  0  0  0  0  0  0  0
    2.4628   -0.7100   -0.3462 C   0  0  0  0  0  0  0  0  0  0  0  0
    3.3641   -0.6718   -1.5930 C   0  0  0  0  0  0  0  0  0  0  0  0
    4.8251   -0.4451   -1.2261 C   0  0  0  0  0  0  0  0  0  0  0  0
    4.9635    0.8120   -0.4071 C   0  0  0  0  0  0  0  0  0  0  0  0
    5.7446    1.8134   -0.8516 C   0  0  0  0  0  0  0  0  0  0  0  0
    5.8643    3.0946   -0.1292 C   0  0  0  0  0  0  0  0  0  0  0  0
    6.5832    3.9956   -0.5414 O   0  0  0  0  0  0  0  0  0  0  0  0
    5.0850    3.2399    1.1120 C   0  0  0  0  0  0  0  0  0  0  0  0
    4.3073    2.2450    1.5589 C   0  0  0  0  0  0  0  0  0  0  0  0
    4.1201    0.8865    0.8823 C   0  0  0  0  0  0  0  0  0  0  0  0
    4.6694   -0.1497    1.8917 C   0  0  0  0  0  0  0  0  0  0  0  0
    2.6018    0.5957    0.4992 C   0  0  0  0  0  0  0  0  0  0  0  0
    2.1891    1.6453   -0.2953 F   0  0  0  0  0  0  0  0  0  0  0  0
    1.6051    0.5559    1.6890 C   0  0  0  0  0  0  0  0  0  0  0  0
    1.5340    1.8146    2.3665 O   0  0  0  0  0  0  0  0  0  0  0  0
    0.1688    0.2371    1.2482 C   0  0  0  0  0  0  0  0  0  0  0  0
    0.0175   -1.0765    0.4382 C   0  0  0  0  0  0  0  0  0  0  0  0
    0.2767   -2.2559    1.4007 C   0  0  0  0  0  0  0  0  0  0  0  0
   -1.6937   -2.6617   -0.6701 C   0  0  0  0  0  0  0  0  0  0  0  0
   -1.1942   -3.2052   -1.6639 O   0  0  0  0  0  0  0  0  0  0  0  0
   -2.5531   -3.4984    0.2755 C   0  0  0  0  0  0  0  0  0  0  0  0
   -2.1095   -4.8501    0.2860 O   0  0  0  0  0  0  0  0  0  0  0  0
   -7.8945    0.9819   -1.1003 H   0  0  0  0  0  0  0  0  0  0  0  0
   -7.4249    2.6582   -1.4312 H   0  0  0  0  0  0  0  0  0  0  0  0
   -7.9999    2.2044    0.1821 H   0  0  0  0  0  0  0  0  0  0  0  0
   -5.5128    2.4711    0.1255 H   0  0  0  0  0  0  0  0  0  0  0  0
   -5.4111    1.2613   -1.1537 H   0  0  0  0  0  0  0  0  0  0  0  0
   -6.3993   -0.4552    0.4064 H   0  0  0  0  0  0  0  0  0  0  0  0
   -6.5124    0.7725    1.6657 H   0  0  0  0  0  0  0  0  0  0  0  0
   -4.5396   -0.4825    2.1474 H   0  0  0  0  0  0  0  0  0  0  0  0
   -3.9906    1.0880    1.5174 H   0  0  0  0  0  0  0  0  0  0  0  0
   -1.5435   -0.9221   -2.4706 H   0  0  0  0  0  0  0  0  0  0  0  0
   -2.9419    0.9236   -1.8348 H   0  0  0  0  0  0  0  0  0  0  0  0
   -1.5039    1.5603   -2.6082 H   0  0  0  0  0  0  0  0  0  0  0  0
   -1.6651    1.6574   -0.8515 H   0  0  0  0  0  0  0  0  0  0  0  0
    0.6410    0.8613   -1.6685 H   0  0  0  0  0  0  0  0  0  0  0  0
    0.6514   -0.4821   -2.7974 H   0  0  0  0  0  0  0  0  0  0  0  0
    1.0551   -2.0972   -1.1610 H   0  0  0  0  0  0  0  0  0  0  0  0
    2.8205   -1.5409    0.2758 H   0  0  0  0  0  0  0  0  0  0  0  0
    3.2792   -1.6169   -2.1432 H   0  0  0  0  0  0  0  0  0  0  0  0
    3.0373    0.1230   -2.2753 H   0  0  0  0  0  0  0  0  0  0  0  0
    5.4169   -0.3903   -2.1480 H   0  0  0  0  0  0  0  0  0  0  0  0
    5.2143   -1.3019   -0.6645 H   0  0  0  0  0  0  0  0  0  0  0  0
    6.3149    1.7513   -1.7718 H   0  0  0  0  0  0  0  0  0  0  0  0
    5.1927    4.1782    1.6424 H   0  0  0  0  0  0  0  0  0  0  0  0
    3.7988    2.4067    2.5072 H   0  0  0  0  0  0  0  0  0  0  0  0
    4.5492   -1.1820    1.5512 H   0  0  0  0  0  0  0  0  0  0  0  0
    5.7419    0.0021    2.0710 H   0  0  0  0  0  0  0  0  0  0  0  0
    4.1712   -0.0717    2.8650 H   0  0  0  0  0  0  0  0  0  0  0  0
    1.9284   -0.1787    2.4311 H   0  0  0  0  0  0  0  0  0  0  0  0
    1.4061    2.4949    1.6758 H   0  0  0  0  0  0  0  0  0  0  0  0
   -0.4704    0.2050    2.1414 H   0  0  0  0  0  0  0  0  0  0  0  0
   -0.2042    1.0933    0.6760 H   0  0  0  0  0  0  0  0  0  0  0  0
    1.2490   -2.1827    1.8966 H   0  0  0  0  0  0  0  0  0  0  0  0
    0.2821   -3.2189    0.8808 H   0  0  0  0  0  0  0  0  0  0  0  0
   -0.4842   -2.2927    2.1873 H   0  0  0  0  0  0  0  0  0  0  0  0
   -3.5917   -3.4838   -0.0611 H   0  0  0  0  0  0  0  0  0  0  0  0
   -2.4944   -3.1204    1.2974 H   0  0  0  0  0  0  0  0  0  0  0  0
   -1.9400   -5.0801   -0.6500 H   0  0  0  0  0  0  0  0  0  0  0  0
  1  2  1  0
  2  3  1  0
  3  4  1  0
  4  5  1  0
  5  6  2  0
  5  7  1  0
  7  8  1  0
  8  9  1  0
  9 10  1  0
  9 11  1  0
 11 12  1  0
 12 13  1  0
 13 14  1  0
 14 15  1  0
 15 16  1  0
 16 17  2  0
 17 18  1  0
 18 19  2  0
 18 20  1  0
 20 21  2  0
 21 22  1  0
 22 23  1  0
 22 24  1  0
 24 25  1  0
 24 26  1  0
 26 27  1  0
 26 28  1  0
 28 29  1  0
 29 30  1  0
  8 31  1  0
 31 32  2  0
 31 33  1  0
 33 34  1  0
 22 16  1  0
 24 13  1  0
 29  8  1  0
 29 12  1  0
  1 35  1  0
  1 36  1  0
  1 37  1  0
  2 38  1  0
  2 39  1  0
  3 40  1  0
  3 41  1  0
  4 42  1  0
  4 43  1  0
  9 44  1  0
 10 45  1  0
 10 46  1  0
 10 47  1  0
 11 48  1  0
 11 49  1  0
 12 50  1  0
 13 51  1  0
 14 52  1  0
 14 53  1  0
 15 54  1  0
 15 55  1  0
 17 56  1  0
 20 57  1  0
 21 58  1  0
 23 59  1  0
 23 60  1  0
 23 61  1  0
 26 62  1  0
 27 63  1  0
 28 64  1  0
 28 65  1  0
 30 66  1  0
 30 67  1  0
 30 68  1  0
 33 69  1  0
 33 70  1  0
 34 71  1  0
M  END
>  <Energy>  (1) 
148.6059648584151

>  <Real charge>  (1) 
0

>  <Mult>  (1) 
1

$$$$
mol_852 120
     RDKit          3D

 71 74  0  0  0  0  0  0  0  0999 V2000
    7.3866    1.5761   -2.1022 C   0  0  0  0  0  0  0  0  0  0  0  0
    6.2411    1.1259   -1.2090 C   0  0  0  0  0  0  0  0  0  0  0  0
    5.1558    2.2009   -1.1083 C   0  0  0  0  0  0  0  0  0  0  0  0
    4.0066    1.7838   -0.1916 C   0  0  0  0  0  0  0  0  0  0  0  0
    3.1454    0.6958   -0.7879 C   0  0  0  0  0  0  0  0  0  0  0  0
    3.0734    0.4143   -1.9727 O   0  0  0  0  0  0  0  0  0  0  0  0
    2.4480    0.0704    0.1957 O   0  0  0  0  0  0  0  0  0  0  0  0
    1.4584   -0.9259   -0.1422 C   0  0  0  0  0  0  0  0  0  0  0  0
    0.9812   -1.5017    1.2324 C   0  0  0  0  0  0  0  0  0  0  0  0
    1.8271   -2.6065    1.8596 C   0  0  0  0  0  0  0  0  0  0  0  0
   -0.4844   -1.9193    1.0493 C   0  0  0  0  0  0  0  0  0  0  0  0
   -0.9675   -1.2980   -0.2726 C   0  0  0  0  0  0  0  0  0  0  0  0
   -2.4262   -0.7793   -0.2934 C   0  0  0  0  0  0  0  0  0  0  0  0
   -3.3963   -1.8720    0.1930 C   0  0  0  0  0  0  0  0  0  0  0  0
   -4.8493   -1.4346    0.0709 C   0  0  0  0  0  0  0  0  0  0  0  0
   -5.0560   -0.1433    0.8177 C   0  0  0  0  0  0  0  0  0  0  0  0
   -5.9365   -0.0953    1.8340 C   0  0  0  0  0  0  0  0  0  0  0  0
   -6.1313    1.1214    2.6457 C   0  0  0  0  0  0  0  0  0  0  0  0
   -6.9357    1.1521    3.5679 O   0  0  0  0  0  0  0  0  0  0  0  0
   -5.3204    2.2989    2.2932 C   0  0  0  0  0  0  0  0  0  0  0  0
   -4.4440    2.2554    1.2810 C   0  0  0  0  0  0  0  0  0  0  0  0
   -4.1655    1.0419    0.3923 C   0  0  0  0  0  0  0  0  0  0  0  0
   -4.5754    1.4783   -1.0348 C   0  0  0  0  0  0  0  0  0  0  0  0
   -2.6443    0.5719    0.4508 C   0  0  0  0  0  0  0  0  0  0  0  0
   -2.3408    0.3590    1.7790 F   0  0  0  0  0  0  0  0  0  0  0  0
   -1.6050    1.6039   -0.0645 C   0  0  0  0  0  0  0  0  0  0  0  0
   -1.6466    2.8268    0.6766 O   0  0  0  0  0  0  0  0  0  0  0  0
   -0.1659    1.0903    0.0608 C   0  0  0  0  0  0  0  0  0  0  0  0
    0.1119   -0.2559   -0.6611 C   0  0  0  0  0  0  0  0  0  0  0  0
    0.0830    0.0112   -2.1813 C   0  0  0  0  0  0  0  0  0  0  0  0
    1.9818   -2.1174   -1.0170 C   0  0  0  0  0  0  0  0  0  0  0  0
    1.2265   -2.8765   -1.6364 O   0  0  0  0  0  0  0  0  0  0  0  0
    3.4802   -2.4157   -1.0187 C   0  0  0  0  0  0  0  0  0  0  0  0
    3.7113   -3.8139   -1.1470 O   0  0  0  0  0  0  0  0  0  0  0  0
    7.0343    1.7807   -3.1182 H   0  0  0  0  0  0  0  0  0  0  0  0
    7.8557    2.4845   -1.7110 H   0  0  0  0  0  0  0  0  0  0  0  0
    8.1521    0.7959   -2.1587 H   0  0  0  0  0  0  0  0  0  0  0  0
    5.8221    0.1967   -1.6107 H   0  0  0  0  0  0  0  0  0  0  0  0
    6.6328    0.8989   -0.2107 H   0  0  0  0  0  0  0  0  0  0  0  0
    5.6016    3.1204   -0.7094 H   0  0  0  0  0  0  0  0  0  0  0  0
    4.7752    2.4393   -2.1089 H   0  0  0  0  0  0  0  0  0  0  0  0
    3.3566    2.6458   -0.0053 H   0  0  0  0  0  0  0  0  0  0  0  0
    4.4087    1.4403    0.7683 H   0  0  0  0  0  0  0  0  0  0  0  0
    1.0020   -0.6880    1.9712 H   0  0  0  0  0  0  0  0  0  0  0  0
    1.4296   -2.8725    2.8454 H   0  0  0  0  0  0  0  0  0  0  0  0
    2.8603   -2.2751    2.0006 H   0  0  0  0  0  0  0  0  0  0  0  0
    1.8301   -3.5190    1.2556 H   0  0  0  0  0  0  0  0  0  0  0  0
   -1.0633   -1.5816    1.9140 H   0  0  0  0  0  0  0  0  0  0  0  0
   -0.5919   -3.0096    1.0025 H   0  0  0  0  0  0  0  0  0  0  0  0
   -0.9452   -2.1083   -1.0143 H   0  0  0  0  0  0  0  0  0  0  0  0
   -2.6626   -0.6055   -1.3516 H   0  0  0  0  0  0  0  0  0  0  0  0
   -3.1912   -2.1322    1.2385 H   0  0  0  0  0  0  0  0  0  0  0  0
   -3.2503   -2.7865   -0.3948 H   0  0  0  0  0  0  0  0  0  0  0  0
   -5.4937   -2.2318    0.4614 H   0  0  0  0  0  0  0  0  0  0  0  0
   -5.1244   -1.3089   -0.9822 H   0  0  0  0  0  0  0  0  0  0  0  0
   -6.5388   -0.9464    2.1318 H   0  0  0  0  0  0  0  0  0  0  0  0
   -5.4888    3.1937    2.8800 H   0  0  0  0  0  0  0  0  0  0  0  0
   -3.9196    3.1793    1.0473 H   0  0  0  0  0  0  0  0  0  0  0  0
   -5.6503    1.6948   -1.0901 H   0  0  0  0  0  0  0  0  0  0  0  0
   -4.0518    2.3898   -1.3462 H   0  0  0  0  0  0  0  0  0  0  0  0
   -4.3659    0.7148   -1.7895 H   0  0  0  0  0  0  0  0  0  0  0  0
   -1.8089    1.8610   -1.1081 H   0  0  0  0  0  0  0  0  0  0  0  0
   -1.5897    2.5827    1.6214 H   0  0  0  0  0  0  0  0  0  0  0  0
    0.0697    1.0237    1.1294 H   0  0  0  0  0  0  0  0  0  0  0  0
    0.5145    1.8666   -0.3151 H   0  0  0  0  0  0  0  0  0  0  0  0
    0.3806   -0.8601   -2.7693 H   0  0  0  0  0  0  0  0  0  0  0  0
   -0.9198    0.2843   -2.5250 H   0  0  0  0  0  0  0  0  0  0  0  0
    0.7380    0.8415   -2.4586 H   0  0  0  0  0  0  0  0  0  0  0  0
    3.9478   -2.0855   -0.0898 H   0  0  0  0  0  0  0  0  0  0  0  0
    3.9526   -1.9161   -1.8666 H   0  0  0  0  0  0  0  0  0  0  0  0
    3.0652   -4.1301   -1.8103 H   0  0  0  0  0  0  0  0  0  0  0  0
  1  2  1  0
  2  3  1  0
  3  4  1  0
  4  5  1  0
  5  6  2  0
  5  7  1  0
  7  8  1  0
  8  9  1  0
  9 10  1  0
  9 11  1  0
 11 12  1  0
 12 13  1  0
 13 14  1  0
 14 15  1  0
 15 16  1  0
 16 17  2  0
 17 18  1  0
 18 19  2  0
 18 20  1  0
 20 21  2  0
 21 22  1  0
 22 23  1  0
 22 24  1  0
 24 25  1  0
 24 26  1  0
 26 27  1  0
 26 28  1  0
 28 29  1  0
 29 30  1  0
  8 31  1  0
 31 32  2  0
 31 33  1  0
 33 34  1  0
 22 16  1  0
 24 13  1  0
 29  8  1  0
 29 12  1  0
  1 35  1  0
  1 36  1  0
  1 37  1  0
  2 38  1  0
  2 39  1  0
  3 40  1  0
  3 41  1  0
  4 42  1  0
  4 43  1  0
  9 44  1  0
 10 45  1  0
 10 46  1  0
 10 47  1  0
 11 48  1  0
 11 49  1  0
 12 50  1  0
 13 51  1  0
 14 52  1  0
 14 53  1  0
 15 54  1  0
 15 55  1  0
 17 56  1  0
 20 57  1  0
 21 58  1  0
 23 59  1  0
 23 60  1  0
 23 61  1  0
 26 62  1  0
 27 63  1  0
 28 64  1  0
 28 65  1  0
 30 66  1  0
 30 67  1  0
 30 68  1  0
 33 69  1  0
 33 70  1  0
 34 71  1  0
M  END
>  <Energy>  (2) 
148.8382027061207

>  <Real charge>  (2) 
0

>  <Mult>  (2) 
1

$$$$
mol_852 923
     RDKit          3D

 71 74  0  0  0  0  0  0  0  0999 V2000
    6.9595   -3.1883    0.8445 C   0  0  0  0  0  0  0  0  0  0  0  0
    5.4833   -2.8406    0.9499 C   0  0  0  0  0  0  0  0  0  0  0  0
    5.1417   -1.5955    0.1329 C   0  0  0  0  0  0  0  0  0  0  0  0
    3.6583   -1.2493    0.2415 C   0  0  0  0  0  0  0  0  0  0  0  0
    3.3058   -0.0247   -0.5681 C   0  0  0  0  0  0  0  0  0  0  0  0
    4.0906    0.6659   -1.1968 O   0  0  0  0  0  0  0  0  0  0  0  0
    1.9700    0.2086   -0.4763 O   0  0  0  0  0  0  0  0  0  0  0  0
    1.3510    1.2838   -1.2211 C   0  0  0  0  0  0  0  0  0  0  0  0
    0.9511    0.7807   -2.6638 C   0  0  0  0  0  0  0  0  0  0  0  0
    1.9363   -0.1523   -3.3596 C   0  0  0  0  0  0  0  0  0  0  0  0
   -0.4445    0.1184   -2.5310 C   0  0  0  0  0  0  0  0  0  0  0  0
   -0.7939    0.2137   -1.0496 C   0  0  0  0  0  0  0  0  0  0  0  0
   -2.2746    0.1450   -0.6471 C   0  0  0  0  0  0  0  0  0  0  0  0
   -2.9401   -1.1190   -1.2170 C   0  0  0  0  0  0  0  0  0  0  0  0
   -4.4022   -1.2236   -0.8007 C   0  0  0  0  0  0  0  0  0  0  0  0
   -4.5254   -1.1624    0.6996 C   0  0  0  0  0  0  0  0  0  0  0  0
   -5.0977   -2.1839    1.3626 C   0  0  0  0  0  0  0  0  0  0  0  0
   -5.1840   -2.2130    2.8356 C   0  0  0  0  0  0  0  0  0  0  0  0
   -5.7104   -3.1476    3.4256 O   0  0  0  0  0  0  0  0  0  0  0  0
   -4.6130   -1.0672    3.5636 C   0  0  0  0  0  0  0  0  0  0  0  0
   -4.0437   -0.0476    2.9073 C   0  0  0  0  0  0  0  0  0  0  0  0
   -3.9064    0.0702    1.3898 C   0  0  0  0  0  0  0  0  0  0  0  0
   -4.7286    1.3216    1.0008 C   0  0  0  0  0  0  0  0  0  0  0  0
   -2.3945    0.1923    0.9159 C   0  0  0  0  0  0  0  0  0  0  0  0
   -1.7352   -0.9312    1.3878 F   0  0  0  0  0  0  0  0  0  0  0  0
   -1.5947    1.4017    1.4975 C   0  0  0  0  0  0  0  0  0  0  0  0
   -1.4680    1.3133    2.9205 O   0  0  0  0  0  0  0  0  0  0  0  0
   -0.1522    1.5112    0.9565 C   0  0  0  0  0  0  0  0  0  0  0  0
   -0.0834    1.5057   -0.5801 C   0  0  0  0  0  0  0  0  0  0  0  0
   -0.7552    2.8001   -1.1193 C   0  0  0  0  0  0  0  0  0  0  0  0
    2.1383    2.6270   -1.2748 C   0  0  0  0  0  0  0  0  0  0  0  0
    2.1429    3.3543   -2.2753 O   0  0  0  0  0  0  0  0  0  0  0  0
    2.8366    3.1021   -0.0072 C   0  0  0  0  0  0  0  0  0  0  0  0
    2.5274    4.4674    0.2365 O   0  0  0  0  0  0  0  0  0  0  0  0
    7.1817   -4.0818    1.4364 H   0  0  0  0  0  0  0  0  0  0  0  0
    7.5831   -2.3697    1.2180 H   0  0  0  0  0  0  0  0  0  0  0  0
    7.2420   -3.3897   -0.1937 H   0  0  0  0  0  0  0  0  0  0  0  0
    5.2267   -2.6769    2.0031 H   0  0  0  0  0  0  0  0  0  0  0  0
    4.8876   -3.6913    0.5992 H   0  0  0  0  0  0  0  0  0  0  0  0
    5.4063   -1.7591   -0.9194 H   0  0  0  0  0  0  0  0  0  0  0  0
    5.7452   -0.7478    0.4808 H   0  0  0  0  0  0  0  0  0  0  0  0
    3.3970   -1.0534    1.2874 H   0  0  0  0  0  0  0  0  0  0  0  0
    3.0557   -2.0871   -0.1270 H   0  0  0  0  0  0  0  0  0  0  0  0
    0.8236    1.6405   -3.3340 H   0  0  0  0  0  0  0  0  0  0  0  0
    1.5686   -0.4142   -4.3581 H   0  0  0  0  0  0  0  0  0  0  0  0
    2.0739   -1.0883   -2.8096 H   0  0  0  0  0  0  0  0  0  0  0  0
    2.9087    0.3312   -3.4895 H   0  0  0  0  0  0  0  0  0  0  0  0
   -0.4473   -0.9239   -2.8686 H   0  0  0  0  0  0  0  0  0  0  0  0
   -1.1733    0.6611   -3.1447 H   0  0  0  0  0  0  0  0  0  0  0  0
   -0.3088   -0.6515   -0.5706 H   0  0  0  0  0  0  0  0  0  0  0  0
   -2.7976    1.0045   -1.0792 H   0  0  0  0  0  0  0  0  0  0  0  0
   -2.3961   -2.0125   -0.8837 H   0  0  0  0  0  0  0  0  0  0  0  0
   -2.8924   -1.1108   -2.3122 H   0  0  0  0  0  0  0  0  0  0  0  0
   -4.8166   -2.1579   -1.1988 H   0  0  0  0  0  0  0  0  0  0  0  0
   -4.9848   -0.4141   -1.2551 H   0  0  0  0  0  0  0  0  0  0  0  0
   -5.5102   -3.0532    0.8626 H   0  0  0  0  0  0  0  0  0  0  0  0
   -4.6965   -1.0907    4.6433 H   0  0  0  0  0  0  0  0  0  0  0  0
   -3.6842    0.7853    3.5086 H   0  0  0  0  0  0  0  0  0  0  0  0
   -4.6718    1.5531   -0.0667 H   0  0  0  0  0  0  0  0  0  0  0  0
   -4.3910    2.2133    1.5415 H   0  0  0  0  0  0  0  0  0  0  0  0
   -5.7916    1.1875    1.2406 H   0  0  0  0  0  0  0  0  0  0  0  0
   -2.1246    2.3352    1.2897 H   0  0  0  0  0  0  0  0  0  0  0  0
   -1.1624    0.4056    3.1165 H   0  0  0  0  0  0  0  0  0  0  0  0
    0.4391    0.6883    1.3788 H   0  0  0  0  0  0  0  0  0  0  0  0
    0.3021    2.4243    1.3599 H   0  0  0  0  0  0  0  0  0  0  0  0
   -1.8031    2.8906   -0.8223 H   0  0  0  0  0  0  0  0  0  0  0  0
   -0.2498    3.6907   -0.7294 H   0  0  0  0  0  0  0  0  0  0  0  0
   -0.7368    2.8651   -2.2108 H   0  0  0  0  0  0  0  0  0  0  0  0
    2.5270    2.5189    0.8607 H   0  0  0  0  0  0  0  0  0  0  0  0
    3.9184    3.0048   -0.1300 H   0  0  0  0  0  0  0  0  0  0  0  0
    2.7073    4.9333   -0.6044 H   0  0  0  0  0  0  0  0  0  0  0  0
  1  2  1  0
  2  3  1  0
  3  4  1  0
  4  5  1  0
  5  6  2  0
  5  7  1  0
  7  8  1  0
  8  9  1  0
  9 10  1  0
  9 11  1  0
 11 12  1  0
 12 13  1  0
 13 14  1  0
 14 15  1  0
 15 16  1  0
 16 17  2  0
 17 18  1  0
 18 19  2  0
 18 20  1  0
 20 21  2  0
 21 22  1  0
 22 23  1  0
 22 24  1  0
 24 25  1  0
 24 26  1  0
 26 27  1  0
 26 28  1  0
 28 29  1  0
 29 30  1  0
  8 31  1  0
 31 32  2  0
 31 33  1  0
 33 34  1  0
 22 16  1  0
 24 13  1  0
 29  8  1  0
 29 12  1  0
  1 35  1  0
  1 36  1  0
  1 37  1  0
  2 38  1  0
  2 39  1  0
  3 40  1  0
  3 41  1  0
  4 42  1  0
  4 43  1  0
  9 44  1  0
 10 45  1  0
 10 46  1  0
 10 47  1  0
 11 48  1  0
 11 49  1  0
 12 50  1  0
 13 51  1  0
 14 52  1  0
 14 53  1  0
 15 54  1  0
 15 55  1  0
 17 56  1  0
 20 57  1  0
 21 58  1  0
 23 59  1  0
 23 60  1  0
 23 61  1  0
 26 62  1  0
 27 63  1  0
 28 64  1  0
 28 65  1  0
 30 66  1  0
 30 67  1  0
 30 68  1  0
 33 69  1  0
 33 70  1  0
 34 71  1  0
M  END
>  <Energy>  (3) 
149.43767125893007

>  <Real charge>  (3) 
0

>  <Mult>  (3) 
1

$$$$
mol_852 985
     RDKit          3D

 71 74  0  0  0  0  0  0  0  0999 V2000
    5.9440    2.9082    1.0040 C   0  0  0  0  0  0  0  0  0  0  0  0
    6.1823    2.2921   -0.3659 C   0  0  0  0  0  0  0  0  0  0  0  0
    5.0309    1.4055   -0.8413 C   0  0  0  0  0  0  0  0  0  0  0  0
    4.8348    0.1608    0.0171 C   0  0  0  0  0  0  0  0  0  0  0  0
    3.7972   -0.7425   -0.5947 C   0  0  0  0  0  0  0  0  0  0  0  0
    4.0528   -1.7438   -1.2481 O   0  0  0  0  0  0  0  0  0  0  0  0
    2.5469   -0.2855   -0.3162 O   0  0  0  0  0  0  0  0  0  0  0  0
    1.4016   -0.9409   -0.9219 C   0  0  0  0  0  0  0  0  0  0  0  0
    0.9143   -2.1031   -0.0125 C   0  0  0  0  0  0  0  0  0  0  0  0
    1.9714   -3.0272    0.5848 C   0  0  0  0  0  0  0  0  0  0  0  0
    0.0936   -1.4359    1.1090 C   0  0  0  0  0  0  0  0  0  0  0  0
   -0.1499    0.0260    0.6955 C   0  0  0  0  0  0  0  0  0  0  0  0
   -1.5248    0.6266    1.0877 C   0  0  0  0  0  0  0  0  0  0  0  0
   -1.7937    0.4188    2.5922 C   0  0  0  0  0  0  0  0  0  0  0  0
   -3.1196    1.0248    3.0353 C   0  0  0  0  0  0  0  0  0  0  0  0
   -4.2410    0.4843    2.1867 C   0  0  0  0  0  0  0  0  0  0  0  0
   -5.2574   -0.1917    2.7515 C   0  0  0  0  0  0  0  0  0  0  0  0
   -6.3418   -0.7874    1.9456 C   0  0  0  0  0  0  0  0  0  0  0  0
   -7.2708   -1.3876    2.4710 O   0  0  0  0  0  0  0  0  0  0  0  0
   -6.2599   -0.6303    0.4817 C   0  0  0  0  0  0  0  0  0  0  0  0
   -5.2505    0.0437   -0.0855 C   0  0  0  0  0  0  0  0  0  0  0  0
   -4.1012    0.7127    0.6708 C   0  0  0  0  0  0  0  0  0  0  0  0
   -4.2526    2.2292    0.4099 C   0  0  0  0  0  0  0  0  0  0  0  0
   -2.7051    0.1143    0.2114 C   0  0  0  0  0  0  0  0  0  0  0  0
   -2.7815   -1.2506    0.4123 F   0  0  0  0  0  0  0  0  0  0  0  0
   -2.3769    0.2948   -1.2931 C   0  0  0  0  0  0  0  0  0  0  0  0
   -2.3574    1.6605   -1.6893 O   0  0  0  0  0  0  0  0  0  0  0  0
   -1.0415   -0.3690   -1.6633 C   0  0  0  0  0  0  0  0  0  0  0  0
    0.1844    0.0822   -0.8155 C   0  0  0  0  0  0  0  0  0  0  0  0
    0.6010    1.5221   -1.2013 C   0  0  0  0  0  0  0  0  0  0  0  0
    1.6555   -1.2589   -2.4243 C   0  0  0  0  0  0  0  0  0  0  0  0
    2.0448   -0.3796   -3.2055 O   0  0  0  0  0  0  0  0  0  0  0  0
    1.4490   -2.6801   -2.9350 C   0  0  0  0  0  0  0  0  0  0  0  0
    1.5385   -2.7338   -4.3544 O   0  0  0  0  0  0  0  0  0  0  0  0
    6.7548    3.6013    1.2502 H   0  0  0  0  0  0  0  0  0  0  0  0
    5.0028    3.4667    1.0253 H   0  0  0  0  0  0  0  0  0  0  0  0
    5.9118    2.1449    1.7869 H   0  0  0  0  0  0  0  0  0  0  0  0
    7.1151    1.7164   -0.3501 H   0  0  0  0  0  0  0  0  0  0  0  0
    6.3215    3.1012   -1.0929 H   0  0  0  0  0  0  0  0  0  0  0  0
    5.2303    1.1016   -1.8769 H   0  0  0  0  0  0  0  0  0  0  0  0
    4.1031    1.9900   -0.8694 H   0  0  0  0  0  0  0  0  0  0  0  0
    5.7691   -0.4064    0.1000 H   0  0  0  0  0  0  0  0  0  0  0  0
    4.5237    0.4086    1.0376 H   0  0  0  0  0  0  0  0  0  0  0  0
    0.2223   -2.7468   -0.5656 H   0  0  0  0  0  0  0  0  0  0  0  0
    2.6723   -2.4887    1.2300 H   0  0  0  0  0  0  0  0  0  0  0  0
    1.4934   -3.7979    1.2003 H   0  0  0  0  0  0  0  0  0  0  0  0
    2.5372   -3.5436   -0.1945 H   0  0  0  0  0  0  0  0  0  0  0  0
   -0.8314   -2.0009    1.2542 H   0  0  0  0  0  0  0  0  0  0  0  0
    0.6234   -1.4564    2.0694 H   0  0  0  0  0  0  0  0  0  0  0  0
    0.6062    0.6192    1.2331 H   0  0  0  0  0  0  0  0  0  0  0  0
   -1.4431    1.7100    0.9302 H   0  0  0  0  0  0  0  0  0  0  0  0
   -0.9823    0.8691    3.1770 H   0  0  0  0  0  0  0  0  0  0  0  0
   -1.8017   -0.6500    2.8377 H   0  0  0  0  0  0  0  0  0  0  0  0
   -3.0830    2.1173    2.9584 H   0  0  0  0  0  0  0  0  0  0  0  0
   -3.2770    0.7982    4.0968 H   0  0  0  0  0  0  0  0  0  0  0  0
   -5.3338   -0.3552    3.8204 H   0  0  0  0  0  0  0  0  0  0  0  0
   -7.0600   -1.0776   -0.0953 H   0  0  0  0  0  0  0  0  0  0  0  0
   -5.2623    0.1469   -1.1681 H   0  0  0  0  0  0  0  0  0  0  0  0
   -5.1215    2.6378    0.9429 H   0  0  0  0  0  0  0  0  0  0  0  0
   -4.4149    2.4532   -0.6503 H   0  0  0  0  0  0  0  0  0  0  0  0
   -3.3796    2.8023    0.7364 H   0  0  0  0  0  0  0  0  0  0  0  0
   -3.1497   -0.1999   -1.8915 H   0  0  0  0  0  0  0  0  0  0  0  0
   -2.1518    1.6960   -2.6414 H   0  0  0  0  0  0  0  0  0  0  0  0
   -1.1880   -1.4509   -1.5769 H   0  0  0  0  0  0  0  0  0  0  0  0
   -0.8336   -0.1737   -2.7233 H   0  0  0  0  0  0  0  0  0  0  0  0
    1.5174    1.8382   -0.6929 H   0  0  0  0  0  0  0  0  0  0  0  0
    0.7709    1.6154   -2.2781 H   0  0  0  0  0  0  0  0  0  0  0  0
   -0.1566    2.2599   -0.9257 H   0  0  0  0  0  0  0  0  0  0  0  0
    2.2126   -3.3386   -2.5175 H   0  0  0  0  0  0  0  0  0  0  0  0
    0.4528   -3.0361   -2.6698 H   0  0  0  0  0  0  0  0  0  0  0  0
    2.2120   -2.0695   -4.6052 H   0  0  0  0  0  0  0  0  0  0  0  0
  1  2  1  0
  2  3  1  0
  3  4  1  0
  4  5  1  0
  5  6  2  0
  5  7  1  0
  7  8  1  0
  8  9  1  0
  9 10  1  0
  9 11  1  0
 11 12  1  0
 12 13  1  0
 13 14  1  0
 14 15  1  0
 15 16  1  0
 16 17  2  0
 17 18  1  0
 18 19  2  0
 18 20  1  0
 20 21  2  0
 21 22  1  0
 22 23  1  0
 22 24  1  0
 24 25  1  0
 24 26  1  0
 26 27  1  0
 26 28  1  0
 28 29  1  0
 29 30  1  0
  8 31  1  0
 31 32  2  0
 31 33  1  0
 33 34  1  0
 22 16  1  0
 24 13  1  0
 29  8  1  0
 29 12  1  0
  1 35  1  0
  1 36  1  0
  1 37  1  0
  2 38  1  0
  2 39  1  0
  3 40  1  0
  3 41  1  0
  4 42  1  0
  4 43  1  0
  9 44  1  0
 10 45  1  0
 10 46  1  0
 10 47  1  0
 11 48  1  0
 11 49  1  0
 12 50  1  0
 13 51  1  0
 14 52  1  0
 14 53  1  0
 15 54  1  0
 15 55  1  0
 17 56  1  0
 20 57  1  0
 21 58  1  0
 23 59  1  0
 23 60  1  0
 23 61  1  0
 26 62  1  0
 27 63  1  0
 28 64  1  0
 28 65  1  0
 30 66  1  0
 30 67  1  0
 30 68  1  0
 33 69  1  0
 33 70  1  0
 34 71  1  0
M  END
>  <Energy>  (4) 
149.54756003238754

>  <Real charge>  (4) 
0

>  <Mult>  (4) 
1

$$$$
