mol_235 32
     RDKit          3D

 25 26  0  0  0  0  0  0  0  0999 V2000
   -4.3838   -0.0865    0.2445 C   0  0  0  0  0  0  0  0  0  0  0  0
   -2.8880   -0.0365    0.1490 C   0  0  0  0  0  0  0  0  0  0  0  0
   -2.2640    0.7852   -0.7941 C   0  0  0  0  0  0  0  0  0  0  0  0
   -0.8696    0.8079   -0.9032 C   0  0  0  0  0  0  0  0  0  0  0  0
   -0.0643    0.0028   -0.0825 C   0  0  0  0  0  0  0  0  0  0  0  0
   -0.7031   -0.8295    0.8500 C   0  0  0  0  0  0  0  0  0  0  0  0
   -2.0972   -0.8534    0.9623 C   0  0  0  0  0  0  0  0  0  0  0  0
    1.4031    0.0275   -0.1993 C   0  0  0  0  0  0  0  0  0  0  0  0
    2.1160    1.2352   -0.1138 C   0  0  0  0  0  0  0  0  0  0  0  0
    3.5090    1.2598   -0.2240 C   0  0  0  0  0  0  0  0  0  0  0  0
    4.2136    0.0754   -0.4230 C   0  0  0  0  0  0  0  0  0  0  0  0
    3.5269   -1.1328   -0.5113 C   0  0  0  0  0  0  0  0  0  0  0  0
    2.1340   -1.1556   -0.3997 C   0  0  0  0  0  0  0  0  0  0  0  0
   -4.7025   -0.3190    1.2660 H   0  0  0  0  0  0  0  0  0  0  0  0
   -4.8246    0.8803   -0.0206 H   0  0  0  0  0  0  0  0  0  0  0  0
   -4.7766   -0.8519   -0.4318 H   0  0  0  0  0  0  0  0  0  0  0  0
   -2.8573    1.4142   -1.4539 H   0  0  0  0  0  0  0  0  0  0  0  0
   -0.4125    1.4533   -1.6506 H   0  0  0  0  0  0  0  0  0  0  0  0
   -0.1131   -1.4639    1.5084 H   0  0  0  0  0  0  0  0  0  0  0  0
   -2.5586   -1.5133    1.6934 H   0  0  0  0  0  0  0  0  0  0  0  0
    1.5854    2.1705    0.0529 H   0  0  0  0  0  0  0  0  0  0  0  0
    4.0415    2.2044   -0.1514 H   0  0  0  0  0  0  0  0  0  0  0  0
    5.2968    0.0939   -0.5092 H   0  0  0  0  0  0  0  0  0  0  0  0
    4.0730   -2.0590   -0.6697 H   0  0  0  0  0  0  0  0  0  0  0  0
    1.6157   -2.1088   -0.4831 H   0  0  0  0  0  0  0  0  0  0  0  0
  1  2  1  0
  2  3  2  0
  3  4  1  0
  4  5  2  0
  5  6  1  0
  6  7  2  0
  5  8  1  0
  8  9  2  0
  9 10  1  0
 10 11  2  0
 11 12  1  0
 12 13  2  0
  7  2  1  0
 13  8  1  0
  1 14  1  0
  1 15  1  0
  1 16  1  0
  3 17  1  0
  4 18  1  0
  6 19  1  0
  7 20  1  0
  9 21  1  0
 10 22  1  0
 11 23  1  0
 12 24  1  0
 13 25  1  0
M  END
>  <Energy>  (1) 
41.43120255596461

>  <Real charge>  (1) 
0

>  <Mult>  (1) 
1

$$$$
