mol_353 7
     RDKit          3D

  5  4  0  0  0  0  0  0  0  0999 V2000
    1.5462   -0.6186   -0.5481 Cl  0  0  0  0  0  0  0  0  0  0  0  0
    0.0354   -0.0064    0.1280 C   0  0  0  0  0  0  0  0  0  0  0  0
   -0.2744    1.8074   -0.4822 Br  0  0  0  0  0  0  0  0  0  0  0  0
   -1.4210   -1.2066   -0.3149 Br  0  0  0  0  0  0  0  0  0  0  0  0
    0.1138    0.0243    1.2173 H   0  0  0  0  0  0  0  0  0  0  0  0
  1  2  1  0
  2  3  1  0
  2  4  1  0
  2  5  1  0
M  END
>  <Energy>  (1) 
0.09532438009348991

>  <Real charge>  (1) 
0

>  <Mult>  (1) 
1

$$$$
