mol_36 85
     RDKit          3D

 16 15  0  0  0  0  0  0  0  0999 V2000
   -2.3362    0.0884    0.5978 C   0  0  0  0  0  0  0  0  0  0  0  0
   -1.0147   -0.6342    0.3901 C   0  0  0  0  0  0  0  0  0  0  0  0
    0.1118    0.3432    0.0578 C   0  0  0  0  0  0  0  0  0  0  0  0
    1.4355   -0.3854   -0.1498 C   0  0  0  0  0  0  0  0  0  0  0  0
    2.5700    0.5543   -0.4801 C   0  0  0  0  0  0  0  0  0  0  0  0
    2.4638    1.7722   -0.5764 O   0  0  0  0  0  0  0  0  0  0  0  0
   -3.1277   -0.6296    0.8343 H   0  0  0  0  0  0  0  0  0  0  0  0
   -2.6310    0.6340   -0.3043 H   0  0  0  0  0  0  0  0  0  0  0  0
   -2.2672    0.8025    1.4246 H   0  0  0  0  0  0  0  0  0  0  0  0
   -0.7652   -1.1953    1.2981 H   0  0  0  0  0  0  0  0  0  0  0  0
   -1.1270   -1.3628   -0.4212 H   0  0  0  0  0  0  0  0  0  0  0  0
   -0.1442    0.9090   -0.8468 H   0  0  0  0  0  0  0  0  0  0  0  0
    0.2166    1.0760    0.8676 H   0  0  0  0  0  0  0  0  0  0  0  0
    1.7162   -0.9346    0.7554 H   0  0  0  0  0  0  0  0  0  0  0  0
    1.3524   -1.1030   -0.9731 H   0  0  0  0  0  0  0  0  0  0  0  0
    3.5469    0.0654   -0.6381 H   0  0  0  0  0  0  0  0  0  0  0  0
  1  2  1  0
  2  3  1  0
  3  4  1  0
  4  5  1  0
  5  6  2  0
  1  7  1  0
  1  8  1  0
  1  9  1  0
  2 10  1  0
  2 11  1  0
  3 12  1  0
  3 13  1  0
  4 14  1  0
  4 15  1  0
  5 16  1  0
M  END
>  <Energy>  (1) 
-1.9062225965165915

>  <Real charge>  (1) 
0

>  <Mult>  (1) 
1

$$$$
mol_36 143
     RDKit          3D

 16 15  0  0  0  0  0  0  0  0999 V2000
   -2.2290    0.4282    0.3707 C   0  0  0  0  0  0  0  0  0  0  0  0
   -0.8667   -0.2261    0.5410 C   0  0  0  0  0  0  0  0  0  0  0  0
    0.0663    0.1155   -0.6234 C   0  0  0  0  0  0  0  0  0  0  0  0
    1.4337   -0.5489   -0.4892 C   0  0  0  0  0  0  0  0  0  0  0  0
    2.3280    0.0899    0.5478 C   0  0  0  0  0  0  0  0  0  0  0  0
    2.0547    1.1025    1.1830 O   0  0  0  0  0  0  0  0  0  0  0  0
   -2.8815    0.1689    1.2103 H   0  0  0  0  0  0  0  0  0  0  0  0
   -2.1384    1.5186    0.3349 H   0  0  0  0  0  0  0  0  0  0  0  0
   -2.7133    0.0926   -0.5519 H   0  0  0  0  0  0  0  0  0  0  0  0
   -0.4307    0.1033    1.4903 H   0  0  0  0  0  0  0  0  0  0  0  0
   -0.9971   -1.3127    0.6053 H   0  0  0  0  0  0  0  0  0  0  0  0
   -0.3956   -0.2278   -1.5574 H   0  0  0  0  0  0  0  0  0  0  0  0
    0.1788    1.2035   -0.7042 H   0  0  0  0  0  0  0  0  0  0  0  0
    1.9661   -0.4817   -1.4445 H   0  0  0  0  0  0  0  0  0  0  0  0
    1.3274   -1.6099   -0.2394 H   0  0  0  0  0  0  0  0  0  0  0  0
    3.2976   -0.4159    0.6974 H   0  0  0  0  0  0  0  0  0  0  0  0
  1  2  1  0
  2  3  1  0
  3  4  1  0
  4  5  1  0
  5  6  2  0
  1  7  1  0
  1  8  1  0
  1  9  1  0
  2 10  1  0
  2 11  1  0
  3 12  1  0
  3 13  1  0
  4 14  1  0
  4 15  1  0
  5 16  1  0
M  END
>  <Energy>  (2) 
-1.7864377302380126

>  <Real charge>  (2) 
0

>  <Mult>  (2) 
1

$$$$
mol_36 118
     RDKit          3D

 16 15  0  0  0  0  0  0  0  0999 V2000
   -2.1366    0.7581    0.1128 C   0  0  0  0  0  0  0  0  0  0  0  0
   -0.6597    0.5687    0.4220 C   0  0  0  0  0  0  0  0  0  0  0  0
   -0.1108   -0.7028   -0.2295 C   0  0  0  0  0  0  0  0  0  0  0  0
    1.3602   -0.9355    0.1003 C   0  0  0  0  0  0  0  0  0  0  0  0
    2.2445    0.0670   -0.5940 C   0  0  0  0  0  0  0  0  0  0  0  0
    3.0825    0.7453   -0.0081 O   0  0  0  0  0  0  0  0  0  0  0  0
   -2.7270   -0.0846    0.4864 H   0  0  0  0  0  0  0  0  0  0  0  0
   -2.5092    1.6709    0.5879 H   0  0  0  0  0  0  0  0  0  0  0  0
   -2.3035    0.8439   -0.9657 H   0  0  0  0  0  0  0  0  0  0  0  0
   -0.5243    0.5180    1.5087 H   0  0  0  0  0  0  0  0  0  0  0  0
   -0.1069    1.4456    0.0667 H   0  0  0  0  0  0  0  0  0  0  0  0
   -0.2481   -0.6471   -1.3164 H   0  0  0  0  0  0  0  0  0  0  0  0
   -0.6888   -1.5653    0.1241 H   0  0  0  0  0  0  0  0  0  0  0  0
    1.5350   -0.8883    1.1802 H   0  0  0  0  0  0  0  0  0  0  0  0
    1.6638   -1.9282   -0.2492 H   0  0  0  0  0  0  0  0  0  0  0  0
    2.1290    0.1343   -1.6893 H   0  0  0  0  0  0  0  0  0  0  0  0
  1  2  1  0
  2  3  1  0
  3  4  1  0
  4  5  1  0
  5  6  2  0
  1  7  1  0
  1  8  1  0
  1  9  1  0
  2 10  1  0
  2 11  1  0
  3 12  1  0
  3 13  1  0
  4 14  1  0
  4 15  1  0
  5 16  1  0
M  END
>  <Energy>  (3) 
-1.5728989838062113

>  <Real charge>  (3) 
0

>  <Mult>  (3) 
1

$$$$
mol_36 193
     RDKit          3D

 16 15  0  0  0  0  0  0  0  0999 V2000
   -2.2445   -0.3263   -0.7776 C   0  0  0  0  0  0  0  0  0  0  0  0
   -1.1325   -0.5981    0.2230 C   0  0  0  0  0  0  0  0  0  0  0  0
    0.1954   -0.0010   -0.2395 C   0  0  0  0  0  0  0  0  0  0  0  0
    1.3075   -0.2753    0.7663 C   0  0  0  0  0  0  0  0  0  0  0  0
    2.6038    0.3168    0.2813 C   0  0  0  0  0  0  0  0  0  0  0  0
    3.6447   -0.3259    0.1870 O   0  0  0  0  0  0  0  0  0  0  0  0
   -3.1851   -0.7623   -0.4267 H   0  0  0  0  0  0  0  0  0  0  0  0
   -2.3977    0.7493   -0.9113 H   0  0  0  0  0  0  0  0  0  0  0  0
   -2.0101   -0.7642   -1.7531 H   0  0  0  0  0  0  0  0  0  0  0  0
   -1.0272   -1.6809    0.3579 H   0  0  0  0  0  0  0  0  0  0  0  0
   -1.4123   -0.1755    1.1951 H   0  0  0  0  0  0  0  0  0  0  0  0
    0.4712   -0.4188   -1.2160 H   0  0  0  0  0  0  0  0  0  0  0  0
    0.0851    1.0812   -0.3836 H   0  0  0  0  0  0  0  0  0  0  0  0
    1.0745    0.1768    1.7360 H   0  0  0  0  0  0  0  0  0  0  0  0
    1.4432   -1.3524    0.9111 H   0  0  0  0  0  0  0  0  0  0  0  0
    2.5840    1.3957    0.0501 H   0  0  0  0  0  0  0  0  0  0  0  0
  1  2  1  0
  2  3  1  0
  3  4  1  0
  4  5  1  0
  5  6  2  0
  1  7  1  0
  1  8  1  0
  1  9  1  0
  2 10  1  0
  2 11  1  0
  3 12  1  0
  3 13  1  0
  4 14  1  0
  4 15  1  0
  5 16  1  0
M  END
>  <Energy>  (4) 
-1.391743004464638

>  <Real charge>  (4) 
0

>  <Mult>  (4) 
1

$$$$
mol_36 225
     RDKit          3D

 16 15  0  0  0  0  0  0  0  0999 V2000
   -2.2799    0.1238    0.0434 C   0  0  0  0  0  0  0  0  0  0  0  0
   -0.8655   -0.2184    0.4861 C   0  0  0  0  0  0  0  0  0  0  0  0
    0.1712    0.6330   -0.2507 C   0  0  0  0  0  0  0  0  0  0  0  0
    1.5988    0.3589    0.2124 C   0  0  0  0  0  0  0  0  0  0  0  0
    2.1202   -0.9461   -0.3314 C   0  0  0  0  0  0  0  0  0  0  0  0
    3.1080   -1.0272   -1.0552 O   0  0  0  0  0  0  0  0  0  0  0  0
   -2.5120    1.1740    0.2475 H   0  0  0  0  0  0  0  0  0  0  0  0
   -2.4094   -0.0552   -1.0287 H   0  0  0  0  0  0  0  0  0  0  0  0
   -3.0053   -0.4947    0.5812 H   0  0  0  0  0  0  0  0  0  0  0  0
   -0.6856   -1.2828    0.3011 H   0  0  0  0  0  0  0  0  0  0  0  0
   -0.7795   -0.0571    1.5669 H   0  0  0  0  0  0  0  0  0  0  0  0
    0.0878    0.4618   -1.3310 H   0  0  0  0  0  0  0  0  0  0  0  0
   -0.0524    1.6924   -0.0742 H   0  0  0  0  0  0  0  0  0  0  0  0
    2.2574    1.1579   -0.1468 H   0  0  0  0  0  0  0  0  0  0  0  0
    1.6686    0.3332    1.3045 H   0  0  0  0  0  0  0  0  0  0  0  0
    1.5776   -1.8536   -0.0186 H   0  0  0  0  0  0  0  0  0  0  0  0
  1  2  1  0
  2  3  1  0
  3  4  1  0
  4  5  1  0
  5  6  2  0
  1  7  1  0
  1  8  1  0
  1  9  1  0
  2 10  1  0
  2 11  1  0
  3 12  1  0
  3 13  1  0
  4 14  1  0
  4 15  1  0
  5 16  1  0
M  END
>  <Energy>  (5) 
-1.1258890233490086

>  <Real charge>  (5) 
0

>  <Mult>  (5) 
1

$$$$
mol_36 170
     RDKit          3D

 16 15  0  0  0  0  0  0  0  0999 V2000
   -1.9796   -0.1218   -0.5985 C   0  0  0  0  0  0  0  0  0  0  0  0
   -1.2064    0.5044    0.5518 C   0  0  0  0  0  0  0  0  0  0  0  0
    0.1789   -0.1094    0.7606 C   0  0  0  0  0  0  0  0  0  0  0  0
    1.1311    0.1378   -0.4060 C   0  0  0  0  0  0  0  0  0  0  0  0
    2.5266   -0.3707   -0.1316 C   0  0  0  0  0  0  0  0  0  0  0  0
    2.8720   -0.9484    0.8934 O   0  0  0  0  0  0  0  0  0  0  0  0
   -1.5011    0.0809   -1.5610 H   0  0  0  0  0  0  0  0  0  0  0  0
   -2.9926    0.2916   -0.6389 H   0  0  0  0  0  0  0  0  0  0  0  0
   -2.0612   -1.2061   -0.4731 H   0  0  0  0  0  0  0  0  0  0  0  0
   -1.7866    0.3744    1.4731 H   0  0  0  0  0  0  0  0  0  0  0  0
   -1.1150    1.5840    0.3849 H   0  0  0  0  0  0  0  0  0  0  0  0
    0.0829   -1.1876    0.9396 H   0  0  0  0  0  0  0  0  0  0  0  0
    0.6098    0.3168    1.6755 H   0  0  0  0  0  0  0  0  0  0  0  0
    0.7789   -0.3644   -1.3125 H   0  0  0  0  0  0  0  0  0  0  0  0
    1.2088    1.2102   -0.6147 H   0  0  0  0  0  0  0  0  0  0  0  0
    3.2535   -0.1916   -0.9427 H   0  0  0  0  0  0  0  0  0  0  0  0
  1  2  1  0
  2  3  1  0
  3  4  1  0
  4  5  1  0
  5  6  2  0
  1  7  1  0
  1  8  1  0
  1  9  1  0
  2 10  1  0
  2 11  1  0
  3 12  1  0
  3 13  1  0
  4 14  1  0
  4 15  1  0
  5 16  1  0
M  END
>  <Energy>  (6) 
-1.1168036183079617

>  <Real charge>  (6) 
0

>  <Mult>  (6) 
1

$$$$
