mol_1033 32
     RDKit          3D

 13 13  0  0  0  0  0  0  0  0999 V2000
   -2.5110    0.1086   -0.1242 O   0  0  0  0  0  0  0  0  0  0  0  0
   -1.1417    0.0829   -0.0579 C   0  0  0  0  0  0  0  0  0  0  0  0
   -0.4243    1.2824   -0.0771 C   0  0  0  0  0  0  0  0  0  0  0  0
   -1.2243    2.8078   -0.1829 Cl  0  0  0  0  0  0  0  0  0  0  0  0
    0.9700    1.2665   -0.0101 C   0  0  0  0  0  0  0  0  0  0  0  0
    1.6416    0.0479    0.0759 C   0  0  0  0  0  0  0  0  0  0  0  0
    3.3601    0.0278    0.1585 Cl  0  0  0  0  0  0  0  0  0  0  0  0
    0.9380   -1.1548    0.0959 C   0  0  0  0  0  0  0  0  0  0  0  0
   -0.4540   -1.1321    0.0287 C   0  0  0  0  0  0  0  0  0  0  0  0
   -1.3203   -2.6243    0.0538 Cl  0  0  0  0  0  0  0  0  0  0  0  0
   -2.8328   -0.8118   -0.0986 H   0  0  0  0  0  0  0  0  0  0  0  0
    1.5283    2.1992   -0.0250 H   0  0  0  0  0  0  0  0  0  0  0  0
    1.4704   -2.1000    0.1631 H   0  0  0  0  0  0  0  0  0  0  0  0
  1  2  1  0
  2  3  2  0
  3  4  1  0
  3  5  1  0
  5  6  2  0
  6  7  1  0
  6  8  1  0
  8  9  2  0
  9 10  1  0
  9  2  1  0
  1 11  1  0
  5 12  1  0
  8 13  1  0
M  END
>  <Energy>  (1) 
13.796615420147672

>  <Real charge>  (1) 
0

>  <Mult>  (1) 
1

$$$$
