mol_306 114
     RDKit          3D

 46 46  0  0  0  0  0  0  0  0999 V2000
    0.6655   -0.5389    3.4452 C   0  0  0  0  0  0  0  0  0  0  0  0
    1.7821   -0.6047    2.4231 C   0  0  0  0  0  0  0  0  0  0  0  0
    1.2196   -0.9602    1.1715 O   0  0  0  0  0  0  0  0  0  0  0  0
    2.1324   -0.8275   -0.1663 P   0  0  0  0  0  5  0  0  0  0  0  0
    3.7070   -1.9678   -0.1531 S   0  0  0  0  0  0  0  0  0  0  0  0
    2.3033    0.8025   -0.3376 N   0  0  0  0  0  0  0  0  0  0  0  0
    3.1592    1.3796   -1.3682 C   0  0  0  0  0  0  0  0  0  0  0  0
    3.2821    2.8795   -1.0978 C   0  0  0  0  0  0  0  0  0  0  0  0
    2.6079    1.1437   -2.7728 C   0  0  0  0  0  0  0  0  0  0  0  0
    1.0689   -1.2187   -1.3343 O   0  0  0  0  0  0  0  0  0  0  0  0
   -0.0048   -2.0282   -1.0878 C   0  0  0  0  0  0  0  0  0  0  0  0
    0.1614   -3.3977   -1.3058 C   0  0  0  0  0  0  0  0  0  0  0  0
   -0.9031   -4.2694   -1.0874 C   0  0  0  0  0  0  0  0  0  0  0  0
   -2.1333   -3.7719   -0.6630 C   0  0  0  0  0  0  0  0  0  0  0  0
   -2.3036   -2.3989   -0.4602 C   0  0  0  0  0  0  0  0  0  0  0  0
   -1.2403   -1.5058   -0.6752 C   0  0  0  0  0  0  0  0  0  0  0  0
   -1.4118   -0.0344   -0.4700 C   0  0  0  0  0  0  0  0  0  0  0  0
   -0.5534    0.8067   -0.6916 O   0  0  0  0  0  0  0  0  0  0  0  0
   -2.6546    0.2294    0.0101 O   0  0  0  0  0  0  0  0  0  0  0  0
   -2.9610    1.6132    0.2665 C   0  0  0  0  0  0  0  0  0  0  0  0
   -4.4784    1.7485    0.2321 C   0  0  0  0  0  0  0  0  0  0  0  0
   -2.4145    2.0164    1.6314 C   0  0  0  0  0  0  0  0  0  0  0  0
   -0.0838    0.2027    3.1501 H   0  0  0  0  0  0  0  0  0  0  0  0
    1.0545   -0.2743    4.4323 H   0  0  0  0  0  0  0  0  0  0  0  0
    0.1489   -1.5020    3.5148 H   0  0  0  0  0  0  0  0  0  0  0  0
    2.5135   -1.3611    2.7220 H   0  0  0  0  0  0  0  0  0  0  0  0
    2.2817    0.3662    2.3542 H   0  0  0  0  0  0  0  0  0  0  0  0
    1.3609    1.1923   -0.4357 H   0  0  0  0  0  0  0  0  0  0  0  0
    4.1628    0.9464   -1.2997 H   0  0  0  0  0  0  0  0  0  0  0  0
    3.6957    3.0661   -0.1002 H   0  0  0  0  0  0  0  0  0  0  0  0
    3.9518    3.3499   -1.8260 H   0  0  0  0  0  0  0  0  0  0  0  0
    2.3104    3.3828   -1.1614 H   0  0  0  0  0  0  0  0  0  0  0  0
    3.2259    1.6530   -3.5204 H   0  0  0  0  0  0  0  0  0  0  0  0
    1.5841    1.5211   -2.8730 H   0  0  0  0  0  0  0  0  0  0  0  0
    2.6057    0.0790   -3.0260 H   0  0  0  0  0  0  0  0  0  0  0  0
    1.1184   -3.7887   -1.6439 H   0  0  0  0  0  0  0  0  0  0  0  0
   -0.7727   -5.3368   -1.2501 H   0  0  0  0  0  0  0  0  0  0  0  0
   -2.9643   -4.4529   -0.4928 H   0  0  0  0  0  0  0  0  0  0  0  0
   -3.2783   -2.0421   -0.1353 H   0  0  0  0  0  0  0  0  0  0  0  0
   -2.5373    2.2498   -0.5198 H   0  0  0  0  0  0  0  0  0  0  0  0
   -4.7906    2.7807    0.4175 H   0  0  0  0  0  0  0  0  0  0  0  0
   -4.8659    1.4366   -0.7439 H   0  0  0  0  0  0  0  0  0  0  0  0
   -4.9486    1.0989    0.9788 H   0  0  0  0  0  0  0  0  0  0  0  0
   -1.3227    1.9391    1.6532 H   0  0  0  0  0  0  0  0  0  0  0  0
   -2.6893    3.0460    1.8799 H   0  0  0  0  0  0  0  0  0  0  0  0
   -2.7916    1.3515    2.4163 H   0  0  0  0  0  0  0  0  0  0  0  0
  1  2  1  0
  2  3  1  0
  3  4  1  0
  4  5  2  0
  4  6  1  0
  6  7  1  0
  7  8  1  0
  7  9  1  0
  4 10  1  0
 10 11  1  0
 11 12  2  0
 12 13  1  0
 13 14  2  0
 14 15  1  0
 15 16  2  0
 16 17  1  0
 17 18  2  0
 17 19  1  0
 19 20  1  0
 20 21  1  0
 20 22  1  0
 16 11  1  0
  1 23  1  0
  1 24  1  0
  1 25  1  0
  2 26  1  0
  2 27  1  0
  6 28  1  0
  7 29  1  0
  8 30  1  0
  8 31  1  0
  8 32  1  0
  9 33  1  0
  9 34  1  0
  9 35  1  0
 12 36  1  0
 13 37  1  0
 14 38  1  0
 15 39  1  0
 20 40  1  0
 21 41  1  0
 21 42  1  0
 21 43  1  0
 22 44  1  0
 22 45  1  0
 22 46  1  0
M  END
>  <Energy>  (1) 
-72.61476222059608

>  <Real charge>  (1) 
0

>  <Mult>  (1) 
1

$$$$
mol_306 566
     RDKit          3D

 46 46  0  0  0  0  0  0  0  0999 V2000
   -1.6996    1.6505   -2.5135 C   0  0  0  0  0  0  0  0  0  0  0  0
   -2.4751    1.2979   -1.2605 C   0  0  0  0  0  0  0  0  0  0  0  0
   -1.5488    1.1151   -0.2034 O   0  0  0  0  0  0  0  0  0  0  0  0
   -1.9715    0.1951    1.0664 P   0  0  0  0  0  5  0  0  0  0  0  0
   -3.5015    0.8840    2.0470 S   0  0  0  0  0  0  0  0  0  0  0  0
   -2.0229   -1.3203    0.4212 N   0  0  0  0  0  0  0  0  0  0  0  0
   -2.4750   -2.4690    1.1984 C   0  0  0  0  0  0  0  0  0  0  0  0
   -2.6355   -3.6535    0.2448 C   0  0  0  0  0  0  0  0  0  0  0  0
   -1.4995   -2.8258    2.3180 C   0  0  0  0  0  0  0  0  0  0  0  0
   -0.6002    0.1820    1.9415 O   0  0  0  0  0  0  0  0  0  0  0  0
    0.3073    1.2026    1.8841 C   0  0  0  0  0  0  0  0  0  0  0  0
    0.2316    2.1794    2.8789 C   0  0  0  0  0  0  0  0  0  0  0  0
    1.1420    3.2343    2.8866 C   0  0  0  0  0  0  0  0  0  0  0  0
    2.1329    3.3058    1.9094 C   0  0  0  0  0  0  0  0  0  0  0  0
    2.2182    2.3192    0.9225 C   0  0  0  0  0  0  0  0  0  0  0  0
    1.3062    1.2511    0.8998 C   0  0  0  0  0  0  0  0  0  0  0  0
    1.3932    0.1869   -0.1445 C   0  0  0  0  0  0  0  0  0  0  0  0
    0.8001   -0.8806   -0.1026 O   0  0  0  0  0  0  0  0  0  0  0  0
    2.1980    0.5971   -1.1584 O   0  0  0  0  0  0  0  0  0  0  0  0
    2.3360   -0.3085   -2.2692 C   0  0  0  0  0  0  0  0  0  0  0  0
    2.6952    0.5306   -3.4891 C   0  0  0  0  0  0  0  0  0  0  0  0
    3.4331   -1.3219   -1.9658 C   0  0  0  0  0  0  0  0  0  0  0  0
   -2.3748    1.8159   -3.3575 H   0  0  0  0  0  0  0  0  0  0  0  0
   -1.0005    0.8479   -2.7716 H   0  0  0  0  0  0  0  0  0  0  0  0
   -1.1012    2.5540   -2.3561 H   0  0  0  0  0  0  0  0  0  0  0  0
   -3.0599    0.3883   -1.4281 H   0  0  0  0  0  0  0  0  0  0  0  0
   -3.1565    2.1130   -0.9990 H   0  0  0  0  0  0  0  0  0  0  0  0
   -1.0900   -1.5201    0.0488 H   0  0  0  0  0  0  0  0  0  0  0  0
   -3.4576   -2.2570    1.6331 H   0  0  0  0  0  0  0  0  0  0  0  0
   -3.0144   -4.5314    0.7793 H   0  0  0  0  0  0  0  0  0  0  0  0
   -1.6825   -3.9297   -0.2211 H   0  0  0  0  0  0  0  0  0  0  0  0
   -3.3483   -3.4205   -0.5543 H   0  0  0  0  0  0  0  0  0  0  0  0
   -1.4475   -2.0313    3.0687 H   0  0  0  0  0  0  0  0  0  0  0  0
   -0.4885   -2.9986    1.9323 H   0  0  0  0  0  0  0  0  0  0  0  0
   -1.8205   -3.7377    2.8333 H   0  0  0  0  0  0  0  0  0  0  0  0
   -0.5364    2.1226    3.6469 H   0  0  0  0  0  0  0  0  0  0  0  0
    1.0793    3.9995    3.6569 H   0  0  0  0  0  0  0  0  0  0  0  0
    2.8441    4.1289    1.9171 H   0  0  0  0  0  0  0  0  0  0  0  0
    3.0081    2.3958    0.1787 H   0  0  0  0  0  0  0  0  0  0  0  0
    1.3866   -0.8204   -2.4685 H   0  0  0  0  0  0  0  0  0  0  0  0
    1.9105    1.2692   -3.6863 H   0  0  0  0  0  0  0  0  0  0  0  0
    3.6208    1.0925   -3.3221 H   0  0  0  0  0  0  0  0  0  0  0  0
    2.8182   -0.0934   -4.3795 H   0  0  0  0  0  0  0  0  0  0  0  0
    4.3773   -0.8181   -1.7311 H   0  0  0  0  0  0  0  0  0  0  0  0
    3.5951   -1.9957   -2.8126 H   0  0  0  0  0  0  0  0  0  0  0  0
    3.1744   -1.9258   -1.0899 H   0  0  0  0  0  0  0  0  0  0  0  0
  1  2  1  0
  2  3  1  0
  3  4  1  0
  4  5  2  0
  4  6  1  0
  6  7  1  0
  7  8  1  0
  7  9  1  0
  4 10  1  0
 10 11  1  0
 11 12  2  0
 12 13  1  0
 13 14  2  0
 14 15  1  0
 15 16  2  0
 16 17  1  0
 17 18  2  0
 17 19  1  0
 19 20  1  0
 20 21  1  0
 20 22  1  0
 16 11  1  0
  1 23  1  0
  1 24  1  0
  1 25  1  0
  2 26  1  0
  2 27  1  0
  6 28  1  0
  7 29  1  0
  8 30  1  0
  8 31  1  0
  8 32  1  0
  9 33  1  0
  9 34  1  0
  9 35  1  0
 12 36  1  0
 13 37  1  0
 14 38  1  0
 15 39  1  0
 20 40  1  0
 21 41  1  0
 21 42  1  0
 21 43  1  0
 22 44  1  0
 22 45  1  0
 22 46  1  0
M  END
>  <Energy>  (2) 
-72.4606572043817

>  <Real charge>  (2) 
0

>  <Mult>  (2) 
1

$$$$
mol_306 121
     RDKit          3D

 46 46  0  0  0  0  0  0  0  0999 V2000
   -3.7806    0.9119    2.1240 C   0  0  0  0  0  0  0  0  0  0  0  0
   -3.0668    1.8311    1.1539 C   0  0  0  0  0  0  0  0  0  0  0  0
   -2.5756    1.0510    0.0775 O   0  0  0  0  0  0  0  0  0  0  0  0
   -1.3917    1.6450   -0.8592 P   0  0  0  0  0  5  0  0  0  0  0  0
   -1.8610    3.3213   -1.7312 S   0  0  0  0  0  0  0  0  0  0  0  0
   -0.9864    0.3541   -1.7942 N   0  0  0  0  0  0  0  0  0  0  0  0
   -1.8139   -0.1006   -2.9030 C   0  0  0  0  0  0  0  0  0  0  0  0
   -3.1124   -0.7470   -2.4264 C   0  0  0  0  0  0  0  0  0  0  0  0
   -0.9983   -1.1029   -3.7210 C   0  0  0  0  0  0  0  0  0  0  0  0
   -0.2042    1.7635    0.2496 O   0  0  0  0  0  0  0  0  0  0  0  0
    1.1168    1.8099   -0.1065 C   0  0  0  0  0  0  0  0  0  0  0  0
    1.6511    3.0176   -0.5589 C   0  0  0  0  0  0  0  0  0  0  0  0
    3.0061    3.1052   -0.8802 C   0  0  0  0  0  0  0  0  0  0  0  0
    3.8333    1.9932   -0.7339 C   0  0  0  0  0  0  0  0  0  0  0  0
    3.3077    0.7906   -0.2581 C   0  0  0  0  0  0  0  0  0  0  0  0
    1.9456    0.6934    0.0678 C   0  0  0  0  0  0  0  0  0  0  0  0
    1.3907   -0.5904    0.5655 C   0  0  0  0  0  0  0  0  0  0  0  0
    0.2606   -0.9892    0.3329 O   0  0  0  0  0  0  0  0  0  0  0  0
    2.3251   -1.2250    1.3173 O   0  0  0  0  0  0  0  0  0  0  0  0
    1.9246   -2.4800    1.8985 C   0  0  0  0  0  0  0  0  0  0  0  0
    3.1955   -3.2784    2.1608 C   0  0  0  0  0  0  0  0  0  0  0  0
    1.1697   -2.2234    3.1979 C   0  0  0  0  0  0  0  0  0  0  0  0
   -4.1864    1.4750    2.9690 H   0  0  0  0  0  0  0  0  0  0  0  0
   -4.5999    0.3844    1.6243 H   0  0  0  0  0  0  0  0  0  0  0  0
   -3.0951    0.1475    2.5048 H   0  0  0  0  0  0  0  0  0  0  0  0
   -2.2465    2.3448    1.6643 H   0  0  0  0  0  0  0  0  0  0  0  0
   -3.7659    2.5778    0.7659 H   0  0  0  0  0  0  0  0  0  0  0  0
   -0.7675   -0.4357   -1.1819 H   0  0  0  0  0  0  0  0  0  0  0  0
   -2.0542    0.7439   -3.5576 H   0  0  0  0  0  0  0  0  0  0  0  0
   -3.6688   -1.1653   -3.2723 H   0  0  0  0  0  0  0  0  0  0  0  0
   -2.9215   -1.5605   -1.7175 H   0  0  0  0  0  0  0  0  0  0  0  0
   -3.7658   -0.0159   -1.9406 H   0  0  0  0  0  0  0  0  0  0  0  0
   -0.0709   -0.6483   -4.0875 H   0  0  0  0  0  0  0  0  0  0  0  0
   -0.7317   -1.9862   -3.1291 H   0  0  0  0  0  0  0  0  0  0  0  0
   -1.5665   -1.4429   -4.5937 H   0  0  0  0  0  0  0  0  0  0  0  0
    1.0259    3.9017   -0.6559 H   0  0  0  0  0  0  0  0  0  0  0  0
    3.4168    4.0458   -1.2406 H   0  0  0  0  0  0  0  0  0  0  0  0
    4.8890    2.0644   -0.9860 H   0  0  0  0  0  0  0  0  0  0  0  0
    3.9669   -0.0677   -0.1488 H   0  0  0  0  0  0  0  0  0  0  0  0
    1.2982   -3.0443    1.1968 H   0  0  0  0  0  0  0  0  0  0  0  0
    2.9694   -4.2525    2.6050 H   0  0  0  0  0  0  0  0  0  0  0  0
    3.7429   -3.4398    1.2257 H   0  0  0  0  0  0  0  0  0  0  0  0
    3.8713   -2.7345    2.8302 H   0  0  0  0  0  0  0  0  0  0  0  0
    0.8956   -3.1623    3.6886 H   0  0  0  0  0  0  0  0  0  0  0  0
    0.2541   -1.6527    3.0117 H   0  0  0  0  0  0  0  0  0  0  0  0
    1.7745   -1.6277    3.8907 H   0  0  0  0  0  0  0  0  0  0  0  0
  1  2  1  0
  2  3  1  0
  3  4  1  0
  4  5  2  0
  4  6  1  0
  6  7  1  0
  7  8  1  0
  7  9  1  0
  4 10  1  0
 10 11  1  0
 11 12  2  0
 12 13  1  0
 13 14  2  0
 14 15  1  0
 15 16  2  0
 16 17  1  0
 17 18  2  0
 17 19  1  0
 19 20  1  0
 20 21  1  0
 20 22  1  0
 16 11  1  0
  1 23  1  0
  1 24  1  0
  1 25  1  0
  2 26  1  0
  2 27  1  0
  6 28  1  0
  7 29  1  0
  8 30  1  0
  8 31  1  0
  8 32  1  0
  9 33  1  0
  9 34  1  0
  9 35  1  0
 12 36  1  0
 13 37  1  0
 14 38  1  0
 15 39  1  0
 20 40  1  0
 21 41  1  0
 21 42  1  0
 21 43  1  0
 22 44  1  0
 22 45  1  0
 22 46  1  0
M  END
>  <Energy>  (3) 
-72.01363063474011

>  <Real charge>  (3) 
0

>  <Mult>  (3) 
1

$$$$
