mol_436 331
     RDKit          3D

 27 26  0  0  0  0  0  0  0  0999 V2000
    4.6715   -0.2077   -0.1826 C   0  0  0  0  0  0  0  0  0  0  0  0
    3.3807    0.5657    0.0354 C   0  0  0  0  0  0  0  0  0  0  0  0
    2.1540   -0.3224   -0.1712 C   0  0  0  0  0  0  0  0  0  0  0  0
    0.8579    0.4592    0.0490 C   0  0  0  0  0  0  0  0  0  0  0  0
   -0.3698   -0.4295   -0.1578 C   0  0  0  0  0  0  0  0  0  0  0  0
   -1.6660    0.3522    0.0625 C   0  0  0  0  0  0  0  0  0  0  0  0
   -2.8917   -0.5350   -0.1440 C   0  0  0  0  0  0  0  0  0  0  0  0
   -4.1862    0.2357    0.0735 C   0  0  0  0  0  0  0  0  0  0  0  0
   -5.2839   -0.6426   -0.1328 O   0  0  0  0  0  0  0  0  0  0  0  0
    5.5356    0.4464   -0.0298 H   0  0  0  0  0  0  0  0  0  0  0  0
    4.7228   -0.6061   -1.2009 H   0  0  0  0  0  0  0  0  0  0  0  0
    4.7506   -1.0446    0.5186 H   0  0  0  0  0  0  0  0  0  0  0  0
    3.3756    0.9775    1.0513 H   0  0  0  0  0  0  0  0  0  0  0  0
    3.3480    1.4135   -0.6587 H   0  0  0  0  0  0  0  0  0  0  0  0
    2.1662   -0.7351   -1.1874 H   0  0  0  0  0  0  0  0  0  0  0  0
    2.1938   -1.1711    0.5225 H   0  0  0  0  0  0  0  0  0  0  0  0
    0.8182    1.3077   -0.6449 H   0  0  0  0  0  0  0  0  0  0  0  0
    0.8458    0.8716    1.0653 H   0  0  0  0  0  0  0  0  0  0  0  0
   -0.3302   -1.2780    0.5361 H   0  0  0  0  0  0  0  0  0  0  0  0
   -0.3578   -0.8419   -1.1740 H   0  0  0  0  0  0  0  0  0  0  0  0
   -1.6781    0.7646    1.0787 H   0  0  0  0  0  0  0  0  0  0  0  0
   -1.7057    1.2007   -0.6314 H   0  0  0  0  0  0  0  0  0  0  0  0
   -2.8875   -0.9594   -1.1558 H   0  0  0  0  0  0  0  0  0  0  0  0
   -2.8601   -1.3920    0.5405 H   0  0  0  0  0  0  0  0  0  0  0  0
   -4.2687    1.0679   -0.6329 H   0  0  0  0  0  0  0  0  0  0  0  0
   -4.2408    0.6276    1.0941 H   0  0  0  0  0  0  0  0  0  0  0  0
   -6.0943   -0.1251    0.0122 H   0  0  0  0  0  0  0  0  0  0  0  0
  1  2  1  0
  2  3  1  0
  3  4  1  0
  4  5  1  0
  5  6  1  0
  6  7  1  0
  7  8  1  0
  8  9  1  0
  1 10  1  0
  1 11  1  0
  1 12  1  0
  2 13  1  0
  2 14  1  0
  3 15  1  0
  3 16  1  0
  4 17  1  0
  4 18  1  0
  5 19  1  0
  5 20  1  0
  6 21  1  0
  6 22  1  0
  7 23  1  0
  7 24  1  0
  8 25  1  0
  8 26  1  0
  9 27  1  0
M  END
>  <Energy>  (1) 
-2.8290125352246327

>  <Real charge>  (1) 
0

>  <Mult>  (1) 
1

$$$$
mol_436 426
     RDKit          3D

 27 26  0  0  0  0  0  0  0  0999 V2000
   -4.6017    0.1227   -0.0812 C   0  0  0  0  0  0  0  0  0  0  0  0
   -3.2811    0.5425    0.5444 C   0  0  0  0  0  0  0  0  0  0  0  0
   -2.0960   -0.1400   -0.1381 C   0  0  0  0  0  0  0  0  0  0  0  0
   -0.7696    0.2849    0.4942 C   0  0  0  0  0  0  0  0  0  0  0  0
    0.4165   -0.3980   -0.1888 C   0  0  0  0  0  0  0  0  0  0  0  0
    1.7432    0.0269    0.4438 C   0  0  0  0  0  0  0  0  0  0  0  0
    2.9294   -0.6585   -0.2403 C   0  0  0  0  0  0  0  0  0  0  0  0
    4.2608   -0.2771    0.3972 C   0  0  0  0  0  0  0  0  0  0  0  0
    4.5070    1.1156    0.2633 O   0  0  0  0  0  0  0  0  0  0  0  0
   -4.6357    0.3901   -1.1422 H   0  0  0  0  0  0  0  0  0  0  0  0
   -4.7510   -0.9583    0.0060 H   0  0  0  0  0  0  0  0  0  0  0  0
   -5.4353    0.6224    0.4219 H   0  0  0  0  0  0  0  0  0  0  0  0
   -3.1778    1.6312    0.4694 H   0  0  0  0  0  0  0  0  0  0  0  0
   -3.2924    0.2903    1.6112 H   0  0  0  0  0  0  0  0  0  0  0  0
   -2.2064   -1.2288   -0.0638 H   0  0  0  0  0  0  0  0  0  0  0  0
   -2.0917    0.1121   -1.2055 H   0  0  0  0  0  0  0  0  0  0  0  0
   -0.6594    1.3737    0.4197 H   0  0  0  0  0  0  0  0  0  0  0  0
   -0.7740    0.0326    1.5616 H   0  0  0  0  0  0  0  0  0  0  0  0
    0.3060   -1.4867   -0.1144 H   0  0  0  0  0  0  0  0  0  0  0  0
    0.4211   -0.1455   -1.2561 H   0  0  0  0  0  0  0  0  0  0  0  0
    1.8489    1.1159    0.3711 H   0  0  0  0  0  0  0  0  0  0  0  0
    1.7389   -0.2272    1.5107 H   0  0  0  0  0  0  0  0  0  0  0  0
    2.9396   -0.3751   -1.2997 H   0  0  0  0  0  0  0  0  0  0  0  0
    2.8075   -1.7466   -0.1892 H   0  0  0  0  0  0  0  0  0  0  0  0
    5.0830   -0.8181   -0.0820 H   0  0  0  0  0  0  0  0  0  0  0  0
    4.2689   -0.5249    1.4632 H   0  0  0  0  0  0  0  0  0  0  0  0
    4.5013    1.3240   -0.6865 H   0  0  0  0  0  0  0  0  0  0  0  0
  1  2  1  0
  2  3  1  0
  3  4  1  0
  4  5  1  0
  5  6  1  0
  6  7  1  0
  7  8  1  0
  8  9  1  0
  1 10  1  0
  1 11  1  0
  1 12  1  0
  2 13  1  0
  2 14  1  0
  3 15  1  0
  3 16  1  0
  4 17  1  0
  4 18  1  0
  5 19  1  0
  5 20  1  0
  6 21  1  0
  6 22  1  0
  7 23  1  0
  7 24  1  0
  8 25  1  0
  8 26  1  0
  9 27  1  0
M  END
>  <Energy>  (2) 
-2.3960837975376315

>  <Real charge>  (2) 
0

>  <Mult>  (2) 
1

$$$$
mol_436 311
     RDKit          3D

 27 26  0  0  0  0  0  0  0  0999 V2000
    4.4042    0.1465    0.7869 C   0  0  0  0  0  0  0  0  0  0  0  0
    3.2371    0.6786   -0.0293 C   0  0  0  0  0  0  0  0  0  0  0  0
    1.9392   -0.0567    0.3040 C   0  0  0  0  0  0  0  0  0  0  0  0
    0.7677    0.4817   -0.5190 C   0  0  0  0  0  0  0  0  0  0  0  0
   -0.5319   -0.2549   -0.1858 C   0  0  0  0  0  0  0  0  0  0  0  0
   -1.7026    0.2881   -1.0080 C   0  0  0  0  0  0  0  0  0  0  0  0
   -3.0041   -0.4844   -0.7920 C   0  0  0  0  0  0  0  0  0  0  0  0
   -3.5629   -0.3604    0.6191 C   0  0  0  0  0  0  0  0  0  0  0  0
   -4.8160   -1.0305    0.6738 O   0  0  0  0  0  0  0  0  0  0  0  0
    5.3218    0.6862    0.5327 H   0  0  0  0  0  0  0  0  0  0  0  0
    4.5695   -0.9172    0.5878 H   0  0  0  0  0  0  0  0  0  0  0  0
    4.2225    0.2715    1.8591 H   0  0  0  0  0  0  0  0  0  0  0  0
    3.4644    0.5683   -1.0960 H   0  0  0  0  0  0  0  0  0  0  0  0
    3.1193    1.7504    0.1683 H   0  0  0  0  0  0  0  0  0  0  0  0
    1.7188    0.0533    1.3729 H   0  0  0  0  0  0  0  0  0  0  0  0
    2.0637   -1.1288    0.1085 H   0  0  0  0  0  0  0  0  0  0  0  0
    0.9890    0.3717   -1.5876 H   0  0  0  0  0  0  0  0  0  0  0  0
    0.6426    1.5536   -0.3230 H   0  0  0  0  0  0  0  0  0  0  0  0
   -0.7414   -0.1449    0.8841 H   0  0  0  0  0  0  0  0  0  0  0  0
   -0.4080   -1.3261   -0.3853 H   0  0  0  0  0  0  0  0  0  0  0  0
   -1.4468    0.2364   -2.0736 H   0  0  0  0  0  0  0  0  0  0  0  0
   -1.8609    1.3476   -0.7727 H   0  0  0  0  0  0  0  0  0  0  0  0
   -3.7559   -0.1192   -1.5034 H   0  0  0  0  0  0  0  0  0  0  0  0
   -2.8605   -1.5441   -1.0375 H   0  0  0  0  0  0  0  0  0  0  0  0
   -2.8983   -0.8229    1.3542 H   0  0  0  0  0  0  0  0  0  0  0  0
   -3.7188    0.6894    0.8867 H   0  0  0  0  0  0  0  0  0  0  0  0
   -5.1518   -0.9332    1.5812 H   0  0  0  0  0  0  0  0  0  0  0  0
  1  2  1  0
  2  3  1  0
  3  4  1  0
  4  5  1  0
  5  6  1  0
  6  7  1  0
  7  8  1  0
  8  9  1  0
  1 10  1  0
  1 11  1  0
  1 12  1  0
  2 13  1  0
  2 14  1  0
  3 15  1  0
  3 16  1  0
  4 17  1  0
  4 18  1  0
  5 19  1  0
  5 20  1  0
  6 21  1  0
  6 22  1  0
  7 23  1  0
  7 24  1  0
  8 25  1  0
  8 26  1  0
  9 27  1  0
M  END
>  <Energy>  (3) 
-2.0307876643665557

>  <Real charge>  (3) 
0

>  <Mult>  (3) 
1

$$$$
mol_436 109
     RDKit          3D

 27 26  0  0  0  0  0  0  0  0999 V2000
    4.5909   -0.1215    0.1692 C   0  0  0  0  0  0  0  0  0  0  0  0
    3.2676    0.5925   -0.0558 C   0  0  0  0  0  0  0  0  0  0  0  0
    2.0799   -0.3275    0.2258 C   0  0  0  0  0  0  0  0  0  0  0  0
    0.7508    0.3944   -0.0017 C   0  0  0  0  0  0  0  0  0  0  0  0
   -0.4379   -0.5262    0.2802 C   0  0  0  0  0  0  0  0  0  0  0  0
   -1.7677    0.1959    0.0521 C   0  0  0  0  0  0  0  0  0  0  0  0
   -2.9559   -0.7274    0.3361 C   0  0  0  0  0  0  0  0  0  0  0  0
   -4.2985   -0.0654    0.0455 C   0  0  0  0  0  0  0  0  0  0  0  0
   -4.5427    1.0102    0.9402 O   0  0  0  0  0  0  0  0  0  0  0  0
    5.4263    0.5546   -0.0378 H   0  0  0  0  0  0  0  0  0  0  0  0
    4.6803   -0.4648    1.2048 H   0  0  0  0  0  0  0  0  0  0  0  0
    4.6852   -0.9900   -0.4904 H   0  0  0  0  0  0  0  0  0  0  0  0
    3.2190    1.4732    0.5951 H   0  0  0  0  0  0  0  0  0  0  0  0
    3.2239    0.9510   -1.0908 H   0  0  0  0  0  0  0  0  0  0  0  0
    2.1306   -0.6865    1.2610 H   0  0  0  0  0  0  0  0  0  0  0  0
    2.1355   -1.2088   -0.4248 H   0  0  0  0  0  0  0  0  0  0  0  0
    0.6954    1.2756    0.6491 H   0  0  0  0  0  0  0  0  0  0  0  0
    0.7001    0.7532   -1.0369 H   0  0  0  0  0  0  0  0  0  0  0  0
   -0.3819   -1.4074   -0.3705 H   0  0  0  0  0  0  0  0  0  0  0  0
   -0.3877   -0.8847    1.3155 H   0  0  0  0  0  0  0  0  0  0  0  0
   -1.8189    0.5518   -0.9840 H   0  0  0  0  0  0  0  0  0  0  0  0
   -1.8150    1.0779    0.7012 H   0  0  0  0  0  0  0  0  0  0  0  0
   -2.8690   -1.6328   -0.2759 H   0  0  0  0  0  0  0  0  0  0  0  0
   -2.9231   -1.0330    1.3888 H   0  0  0  0  0  0  0  0  0  0  0  0
   -4.3501    0.3082   -0.9824 H   0  0  0  0  0  0  0  0  0  0  0  0
   -5.1045   -0.7937    0.1792 H   0  0  0  0  0  0  0  0  0  0  0  0
   -3.9327    1.7310    0.7102 H   0  0  0  0  0  0  0  0  0  0  0  0
  1  2  1  0
  2  3  1  0
  3  4  1  0
  4  5  1  0
  5  6  1  0
  6  7  1  0
  7  8  1  0
  8  9  1  0
  1 10  1  0
  1 11  1  0
  1 12  1  0
  2 13  1  0
  2 14  1  0
  3 15  1  0
  3 16  1  0
  4 17  1  0
  4 18  1  0
  5 19  1  0
  5 20  1  0
  6 21  1  0
  6 22  1  0
  7 23  1  0
  7 24  1  0
  8 25  1  0
  8 26  1  0
  9 27  1  0
M  END
>  <Energy>  (4) 
-2.017940546493535

>  <Real charge>  (4) 
0

>  <Mult>  (4) 
1

$$$$
mol_436 373
     RDKit          3D

 27 26  0  0  0  0  0  0  0  0999 V2000
   -3.9016    0.1304    1.1644 C   0  0  0  0  0  0  0  0  0  0  0  0
   -3.5632    0.2022   -0.3166 C   0  0  0  0  0  0  0  0  0  0  0  0
   -2.2366   -0.4714   -0.6738 C   0  0  0  0  0  0  0  0  0  0  0  0
   -1.0186    0.2270   -0.0648 C   0  0  0  0  0  0  0  0  0  0  0  0
    0.2850   -0.4203   -0.5380 C   0  0  0  0  0  0  0  0  0  0  0  0
    1.5042    0.2736    0.0718 C   0  0  0  0  0  0  0  0  0  0  0  0
    2.8050   -0.3719   -0.4008 C   0  0  0  0  0  0  0  0  0  0  0  0
    4.0234    0.3130    0.2019 C   0  0  0  0  0  0  0  0  0  0  0  0
    5.1960   -0.3321   -0.2755 O   0  0  0  0  0  0  0  0  0  0  0  0
   -3.1960    0.7105    1.7660 H   0  0  0  0  0  0  0  0  0  0  0  0
   -3.8921   -0.9047    1.5202 H   0  0  0  0  0  0  0  0  0  0  0  0
   -4.9014    0.5400    1.3411 H   0  0  0  0  0  0  0  0  0  0  0  0
   -4.3648   -0.2896   -0.8807 H   0  0  0  0  0  0  0  0  0  0  0  0
   -3.5480    1.2504   -0.6370 H   0  0  0  0  0  0  0  0  0  0  0  0
   -2.1383   -0.4753   -1.7665 H   0  0  0  0  0  0  0  0  0  0  0  0
   -2.2595   -1.5207   -0.3552 H   0  0  0  0  0  0  0  0  0  0  0  0
   -1.0245    1.2873   -0.3447 H   0  0  0  0  0  0  0  0  0  0  0  0
   -1.0660    0.1786    1.0289 H   0  0  0  0  0  0  0  0  0  0  0  0
    0.2894   -1.4816   -0.2613 H   0  0  0  0  0  0  0  0  0  0  0  0
    0.3440   -0.3709   -1.6321 H   0  0  0  0  0  0  0  0  0  0  0  0
    1.4992    1.3350   -0.2046 H   0  0  0  0  0  0  0  0  0  0  0  0
    1.4461    0.2241    1.1659 H   0  0  0  0  0  0  0  0  0  0  0  0
    2.8719   -0.3346   -1.4953 H   0  0  0  0  0  0  0  0  0  0  0  0
    2.8189   -1.4366   -0.1360 H   0  0  0  0  0  0  0  0  0  0  0  0
    4.0091    0.2454    1.2943 H   0  0  0  0  0  0  0  0  0  0  0  0
    4.0630    1.3674   -0.0897 H   0  0  0  0  0  0  0  0  0  0  0  0
    5.9556    0.1247    0.1244 H   0  0  0  0  0  0  0  0  0  0  0  0
  1  2  1  0
  2  3  1  0
  3  4  1  0
  4  5  1  0
  5  6  1  0
  6  7  1  0
  7  8  1  0
  8  9  1  0
  1 10  1  0
  1 11  1  0
  1 12  1  0
  2 13  1  0
  2 14  1  0
  3 15  1  0
  3 16  1  0
  4 17  1  0
  4 18  1  0
  5 19  1  0
  5 20  1  0
  6 21  1  0
  6 22  1  0
  7 23  1  0
  7 24  1  0
  8 25  1  0
  8 26  1  0
  9 27  1  0
M  END
>  <Energy>  (5) 
-2.0052189648609064

>  <Real charge>  (5) 
0

>  <Mult>  (5) 
1

$$$$
mol_436 162
     RDKit          3D

 27 26  0  0  0  0  0  0  0  0999 V2000
   -4.3843    0.7689    0.3769 C   0  0  0  0  0  0  0  0  0  0  0  0
   -2.9389    0.5873    0.8120 C   0  0  0  0  0  0  0  0  0  0  0  0
   -2.0829    0.0107   -0.3155 C   0  0  0  0  0  0  0  0  0  0  0  0
   -0.6289   -0.1710    0.1265 C   0  0  0  0  0  0  0  0  0  0  0  0
    0.2263   -0.7448   -1.0054 C   0  0  0  0  0  0  0  0  0  0  0  0
    1.6658   -1.0534   -0.5844 C   0  0  0  0  0  0  0  0  0  0  0  0
    2.4749    0.1924   -0.2272 C   0  0  0  0  0  0  0  0  0  0  0  0
    3.9275   -0.1521    0.0740 C   0  0  0  0  0  0  0  0  0  0  0  0
    4.6247    1.0422    0.4009 O   0  0  0  0  0  0  0  0  0  0  0  0
   -4.9783    1.1822    1.1981 H   0  0  0  0  0  0  0  0  0  0  0  0
   -4.8290   -0.1876    0.0839 H   0  0  0  0  0  0  0  0  0  0  0  0
   -4.4550    1.4556   -0.4726 H   0  0  0  0  0  0  0  0  0  0  0  0
   -2.9062   -0.0785    1.6822 H   0  0  0  0  0  0  0  0  0  0  0  0
   -2.5346    1.5557    1.1288 H   0  0  0  0  0  0  0  0  0  0  0  0
   -2.1216    0.6785   -1.1848 H   0  0  0  0  0  0  0  0  0  0  0  0
   -2.4949   -0.9555   -0.6315 H   0  0  0  0  0  0  0  0  0  0  0  0
   -0.2288    0.7976    0.4461 H   0  0  0  0  0  0  0  0  0  0  0  0
   -0.5902   -0.8418    0.9932 H   0  0  0  0  0  0  0  0  0  0  0  0
   -0.2314   -1.6757   -1.3627 H   0  0  0  0  0  0  0  0  0  0  0  0
    0.2321   -0.0503   -1.8543 H   0  0  0  0  0  0  0  0  0  0  0  0
    2.1596   -1.5744   -1.4142 H   0  0  0  0  0  0  0  0  0  0  0  0
    1.6599   -1.7477    0.2647 H   0  0  0  0  0  0  0  0  0  0  0  0
    2.0441    0.6992    0.6440 H   0  0  0  0  0  0  0  0  0  0  0  0
    2.4372    0.9187   -1.0485 H   0  0  0  0  0  0  0  0  0  0  0  0
    4.4096   -0.6090   -0.7961 H   0  0  0  0  0  0  0  0  0  0  0  0
    3.9977   -0.8398    0.9228 H   0  0  0  0  0  0  0  0  0  0  0  0
    5.5456    0.7926    0.5880 H   0  0  0  0  0  0  0  0  0  0  0  0
  1  2  1  0
  2  3  1  0
  3  4  1  0
  4  5  1  0
  5  6  1  0
  6  7  1  0
  7  8  1  0
  8  9  1  0
  1 10  1  0
  1 11  1  0
  1 12  1  0
  2 13  1  0
  2 14  1  0
  3 15  1  0
  3 16  1  0
  4 17  1  0
  4 18  1  0
  5 19  1  0
  5 20  1  0
  6 21  1  0
  6 22  1  0
  7 23  1  0
  7 24  1  0
  8 25  1  0
  8 26  1  0
  9 27  1  0
M  END
>  <Energy>  (6) 
-1.9593577848128294

>  <Real charge>  (6) 
0

>  <Mult>  (6) 
1

$$$$
mol_436 102
     RDKit          3D

 27 26  0  0  0  0  0  0  0  0999 V2000
   -4.1420    0.3709   -0.4210 C   0  0  0  0  0  0  0  0  0  0  0  0
   -3.1950   -0.2905    0.5676 C   0  0  0  0  0  0  0  0  0  0  0  0
   -1.7635   -0.3314    0.0309 C   0  0  0  0  0  0  0  0  0  0  0  0
   -0.8156   -0.9949    1.0324 C   0  0  0  0  0  0  0  0  0  0  0  0
    0.6101   -1.1666    0.5001 C   0  0  0  0  0  0  0  0  0  0  0  0
    1.3351    0.1599    0.2627 C   0  0  0  0  0  0  0  0  0  0  0  0
    2.7865   -0.0704   -0.1557 C   0  0  0  0  0  0  0  0  0  0  0  0
    3.5166    1.2430   -0.3982 C   0  0  0  0  0  0  0  0  0  0  0  0
    4.8552    0.9604   -0.7820 O   0  0  0  0  0  0  0  0  0  0  0  0
   -4.1624   -0.1747   -1.3698 H   0  0  0  0  0  0  0  0  0  0  0  0
   -3.8390    1.4030   -0.6242 H   0  0  0  0  0  0  0  0  0  0  0  0
   -5.1593    0.3888   -0.0174 H   0  0  0  0  0  0  0  0  0  0  0  0
   -3.5452   -1.3086    0.7739 H   0  0  0  0  0  0  0  0  0  0  0  0
   -3.2216    0.2603    1.5151 H   0  0  0  0  0  0  0  0  0  0  0  0
   -1.7426   -0.8831   -0.9167 H   0  0  0  0  0  0  0  0  0  0  0  0
   -1.4317    0.6912   -0.1805 H   0  0  0  0  0  0  0  0  0  0  0  0
   -0.7934   -0.4140    1.9625 H   0  0  0  0  0  0  0  0  0  0  0  0
   -1.2051   -1.9877    1.2898 H   0  0  0  0  0  0  0  0  0  0  0  0
    0.5880   -1.7484   -0.4294 H   0  0  0  0  0  0  0  0  0  0  0  0
    1.1771   -1.7585    1.2293 H   0  0  0  0  0  0  0  0  0  0  0  0
    0.8245    0.7328   -0.5193 H   0  0  0  0  0  0  0  0  0  0  0  0
    1.3086    0.7627    1.1785 H   0  0  0  0  0  0  0  0  0  0  0  0
    3.3179   -0.6437    0.6143 H   0  0  0  0  0  0  0  0  0  0  0  0
    2.8267   -0.6819   -1.0658 H   0  0  0  0  0  0  0  0  0  0  0  0
    3.5363    1.8526    0.5108 H   0  0  0  0  0  0  0  0  0  0  0  0
    3.0378    1.8140   -1.2001 H   0  0  0  0  0  0  0  0  0  0  0  0
    5.2959    1.8145   -0.9297 H   0  0  0  0  0  0  0  0  0  0  0  0
  1  2  1  0
  2  3  1  0
  3  4  1  0
  4  5  1  0
  5  6  1  0
  6  7  1  0
  7  8  1  0
  8  9  1  0
  1 10  1  0
  1 11  1  0
  1 12  1  0
  2 13  1  0
  2 14  1  0
  3 15  1  0
  3 16  1  0
  4 17  1  0
  4 18  1  0
  5 19  1  0
  5 20  1  0
  6 21  1  0
  6 22  1  0
  7 23  1  0
  7 24  1  0
  8 25  1  0
  8 26  1  0
  9 27  1  0
M  END
>  <Energy>  (7) 
-1.9574701258771705

>  <Real charge>  (7) 
0

>  <Mult>  (7) 
1

$$$$
mol_436 281
     RDKit          3D

 27 26  0  0  0  0  0  0  0  0999 V2000
    4.3141    0.0925   -0.4651 C   0  0  0  0  0  0  0  0  0  0  0  0
    2.8635    0.4554   -0.1853 C   0  0  0  0  0  0  0  0  0  0  0  0
    2.2854   -0.3939    0.9474 C   0  0  0  0  0  0  0  0  0  0  0  0
    0.8628    0.0094    1.3457 C   0  0  0  0  0  0  0  0  0  0  0  0
   -0.1718   -0.2446    0.2471 C   0  0  0  0  0  0  0  0  0  0  0  0
   -1.5877    0.0675    0.7371 C   0  0  0  0  0  0  0  0  0  0  0  0
   -2.6223   -0.1814   -0.3583 C   0  0  0  0  0  0  0  0  0  0  0  0
   -4.0337    0.1263    0.1215 C   0  0  0  0  0  0  0  0  0  0  0  0
   -4.9445   -0.1245   -0.9398 O   0  0  0  0  0  0  0  0  0  0  0  0
    4.9382    0.2598    0.4185 H   0  0  0  0  0  0  0  0  0  0  0  0
    4.7080    0.7078   -1.2801 H   0  0  0  0  0  0  0  0  0  0  0  0
    4.4059   -0.9584   -0.7574 H   0  0  0  0  0  0  0  0  0  0  0  0
    2.2842    0.3118   -1.1034 H   0  0  0  0  0  0  0  0  0  0  0  0
    2.8032    1.5179    0.0769 H   0  0  0  0  0  0  0  0  0  0  0  0
    2.3013   -1.4529    0.6621 H   0  0  0  0  0  0  0  0  0  0  0  0
    2.9279   -0.2961    1.8314 H   0  0  0  0  0  0  0  0  0  0  0  0
    0.5837   -0.5631    2.2391 H   0  0  0  0  0  0  0  0  0  0  0  0
    0.8472    1.0681    1.6320 H   0  0  0  0  0  0  0  0  0  0  0  0
    0.0488    0.3769   -0.6279 H   0  0  0  0  0  0  0  0  0  0  0  0
   -0.1174   -1.2916   -0.0745 H   0  0  0  0  0  0  0  0  0  0  0  0
   -1.6413    1.1136    1.0624 H   0  0  0  0  0  0  0  0  0  0  0  0
   -1.8205   -0.5550    1.6096 H   0  0  0  0  0  0  0  0  0  0  0  0
   -2.5732   -1.2237   -0.6974 H   0  0  0  0  0  0  0  0  0  0  0  0
   -2.3970    0.4314   -1.2401 H   0  0  0  0  0  0  0  0  0  0  0  0
   -4.3049   -0.5091    0.9706 H   0  0  0  0  0  0  0  0  0  0  0  0
   -4.1253    1.1760    0.4181 H   0  0  0  0  0  0  0  0  0  0  0  0
   -5.8346    0.0798   -0.6059 H   0  0  0  0  0  0  0  0  0  0  0  0
  1  2  1  0
  2  3  1  0
  3  4  1  0
  4  5  1  0
  5  6  1  0
  6  7  1  0
  7  8  1  0
  8  9  1  0
  1 10  1  0
  1 11  1  0
  1 12  1  0
  2 13  1  0
  2 14  1  0
  3 15  1  0
  3 16  1  0
  4 17  1  0
  4 18  1  0
  5 19  1  0
  5 20  1  0
  6 21  1  0
  6 22  1  0
  7 23  1  0
  7 24  1  0
  8 25  1  0
  8 26  1  0
  9 27  1  0
M  END
>  <Energy>  (8) 
-1.9542452949590727

>  <Real charge>  (8) 
0

>  <Mult>  (8) 
1

$$$$
