mol_458 15
     RDKit          3D

 13 13  0  0  0  0  0  0  0  0999 V2000
   -2.1343   -1.3963   -0.1958 O   0  0  0  0  0  0  0  0  0  0  0  0
   -1.0021   -0.6453   -0.0900 C   0  0  0  0  0  0  0  0  0  0  0  0
   -1.0608    0.7196    0.1711 C   0  0  0  0  0  0  0  0  0  0  0  0
    0.1263    1.4486    0.2709 C   0  0  0  0  0  0  0  0  0  0  0  0
    1.3617    0.8105    0.1097 C   0  0  0  0  0  0  0  0  0  0  0  0
    2.7874    1.7768    0.2469 Cl  0  0  0  0  0  0  0  0  0  0  0  0
    1.4073   -0.5643   -0.1528 C   0  0  0  0  0  0  0  0  0  0  0  0
    2.8951   -1.4176   -0.3631 Cl  0  0  0  0  0  0  0  0  0  0  0  0
    0.2190   -1.2920   -0.2524 C   0  0  0  0  0  0  0  0  0  0  0  0
   -2.9103   -0.8266   -0.0625 H   0  0  0  0  0  0  0  0  0  0  0  0
   -2.0110    1.2298    0.2988 H   0  0  0  0  0  0  0  0  0  0  0  0
    0.0838    2.5161    0.4750 H   0  0  0  0  0  0  0  0  0  0  0  0
    0.2379   -2.3593   -0.4557 H   0  0  0  0  0  0  0  0  0  0  0  0
  1  2  1  0
  2  3  2  0
  3  4  1  0
  4  5  2  0
  5  6  1  0
  5  7  1  0
  7  8  1  0
  7  9  2  0
  9  2  1  0
  1 10  1  0
  3 11  1  0
  4 12  1  0
  9 13  1  0
M  END
>  <Energy>  (1) 
10.643129029955013

>  <Real charge>  (1) 
0

>  <Mult>  (1) 
1

$$$$
