mol_444 11
     RDKit          3D

 12 12  0  0  0  0  0  0  0  0999 V2000
    3.0555   -0.1586    0.0336 Cl  0  0  0  0  0  0  0  0  0  0  0  0
    1.3370   -0.0694    0.0147 C   0  0  0  0  0  0  0  0  0  0  0  0
    0.5827   -1.2419    0.0294 C   0  0  0  0  0  0  0  0  0  0  0  0
   -0.8110   -1.1686    0.0141 C   0  0  0  0  0  0  0  0  0  0  0  0
   -1.4438    0.0749   -0.0159 C   0  0  0  0  0  0  0  0  0  0  0  0
   -0.6852    1.2462   -0.0305 C   0  0  0  0  0  0  0  0  0  0  0  0
    0.7087    1.1749   -0.0152 C   0  0  0  0  0  0  0  0  0  0  0  0
    1.0723   -2.2115    0.0527 H   0  0  0  0  0  0  0  0  0  0  0  0
   -1.4033   -2.0801    0.0254 H   0  0  0  0  0  0  0  0  0  0  0  0
   -2.5297    0.1313   -0.0279 H   0  0  0  0  0  0  0  0  0  0  0  0
   -1.1796    2.2142   -0.0539 H   0  0  0  0  0  0  0  0  0  0  0  0
    1.2964    2.0886   -0.0267 H   0  0  0  0  0  0  0  0  0  0  0  0
  1  2  1  0
  2  3  2  0
  3  4  1  0
  4  5  2  0
  5  6  1  0
  6  7  2  0
  7  2  1  0
  3  8  1  0
  4  9  1  0
  5 10  1  0
  6 11  1  0
  7 12  1  0
M  END
>  <Energy>  (1) 
15.271216139310775

>  <Real charge>  (1) 
0

>  <Mult>  (1) 
1

$$$$
