mol_964 70
     RDKit          3D

 30 31  0  0  0  0  0  0  0  0999 V2000
   -3.3150    0.6948    1.3943 F   0  0  0  0  0  0  0  0  0  0  0  0
   -3.5072    1.2560    0.1907 C   0  0  0  0  0  0  0  0  0  0  0  0
   -4.7525    1.8357   -0.0597 C   0  0  0  0  0  0  0  0  0  0  0  0
   -5.0055    2.4318   -1.2919 C   0  0  0  0  0  0  0  0  0  0  0  0
   -4.0081    2.4422   -2.2638 C   0  0  0  0  0  0  0  0  0  0  0  0
   -2.7658    1.8587   -2.0012 C   0  0  0  0  0  0  0  0  0  0  0  0
   -1.8501    1.9029   -2.9789 F   0  0  0  0  0  0  0  0  0  0  0  0
   -2.4924    1.2552   -0.7699 C   0  0  0  0  0  0  0  0  0  0  0  0
   -1.1574    0.6425   -0.5232 C   0  0  0  0  0  0  0  0  0  0  0  0
   -0.2869    0.6591   -1.3900 O   0  0  0  0  0  0  0  0  0  0  0  0
   -0.9428    0.0578    0.7174 N   0  0  0  0  0  0  0  0  0  0  0  0
    0.1881   -0.5723    1.2009 C   0  0  0  0  0  0  0  0  0  0  0  0
    0.1528   -1.0213    2.3433 O   0  0  0  0  0  0  0  0  0  0  0  0
    1.2431   -0.6246    0.3291 N   0  0  0  0  0  0  0  0  0  0  0  0
    2.5144   -1.1918    0.5241 C   0  0  0  0  0  0  0  0  0  0  0  0
    2.9154   -1.8234    1.7035 C   0  0  0  0  0  0  0  0  0  0  0  0
    4.2021   -2.3632    1.8161 C   0  0  0  0  0  0  0  0  0  0  0  0
    5.0908   -2.2722    0.7484 C   0  0  0  0  0  0  0  0  0  0  0  0
    6.6713   -2.9362    0.8890 Cl  0  0  0  0  0  0  0  0  0  0  0  0
    4.7047   -1.6457   -0.4327 C   0  0  0  0  0  0  0  0  0  0  0  0
    3.4192   -1.1073   -0.5429 C   0  0  0  0  0  0  0  0  0  0  0  0
   -5.5179    1.8173    0.7118 H   0  0  0  0  0  0  0  0  0  0  0  0
   -5.9729    2.8855   -1.4949 H   0  0  0  0  0  0  0  0  0  0  0  0
   -4.1847    2.9023   -3.2328 H   0  0  0  0  0  0  0  0  0  0  0  0
   -1.6844    0.0637    1.4063 H   0  0  0  0  0  0  0  0  0  0  0  0
    1.0659   -0.1900   -0.5761 H   0  0  0  0  0  0  0  0  0  0  0  0
    2.2503   -1.9134    2.5568 H   0  0  0  0  0  0  0  0  0  0  0  0
    4.4980   -2.8513    2.7409 H   0  0  0  0  0  0  0  0  0  0  0  0
    5.3939   -1.5717   -1.2693 H   0  0  0  0  0  0  0  0  0  0  0  0
    3.1337   -0.6210   -1.4732 H   0  0  0  0  0  0  0  0  0  0  0  0
  1  2  1  0
  2  3  2  0
  3  4  1  0
  4  5  2  0
  5  6  1  0
  6  7  1  0
  6  8  2  0
  8  9  1  0
  9 10  2  0
  9 11  1  0
 11 12  1  0
 12 13  2  0
 12 14  1  0
 14 15  1  0
 15 16  2  0
 16 17  1  0
 17 18  2  0
 18 19  1  0
 18 20  1  0
 20 21  2  0
  8  2  1  0
 21 15  1  0
  3 22  1  0
  4 23  1  0
  5 24  1  0
 11 25  1  0
 14 26  1  0
 16 27  1  0
 17 28  1  0
 20 29  1  0
 21 30  1  0
M  END
>  <Energy>  (1) 
-61.57985815699061

>  <Real charge>  (1) 
0

>  <Mult>  (1) 
1

$$$$
