mol_947 261
     RDKit          3D

 38 39  0  0  0  0  0  0  0  0999 V2000
   -2.3613   -0.3818   -2.5307 C   0  0  0  0  0  0  0  0  0  0  0  0
   -3.0287   -0.0808   -1.2132 C   0  0  0  0  0  0  0  0  0  0  0  0
   -4.4272    0.0533   -1.2050 C   0  0  0  0  0  0  0  0  0  0  0  0
   -5.1086    0.3068   -0.0218 C   0  0  0  0  0  0  0  0  0  0  0  0
   -4.3967    0.4633    1.1617 C   0  0  0  0  0  0  0  0  0  0  0  0
   -2.9921    0.3647    1.1880 C   0  0  0  0  0  0  0  0  0  0  0  0
   -2.3276    0.6754    2.5027 C   0  0  0  0  0  0  0  0  0  0  0  0
   -2.3032    0.0348    0.0001 C   0  0  0  0  0  0  0  0  0  0  0  0
   -0.8951   -0.1317   -0.0649 N   0  0  0  0  0  0  0  0  0  0  0  0
   -0.1107   -0.7752    0.8742 C   0  0  0  0  0  0  0  0  0  0  0  0
   -0.5075   -1.3948    1.8568 O   0  0  0  0  0  0  0  0  0  0  0  0
    1.3572   -0.7937    0.5998 C   0  0  0  0  0  0  0  0  0  0  0  0
    1.9659    0.1872   -0.1950 C   0  0  0  0  0  0  0  0  0  0  0  0
    3.3511    0.1425   -0.4439 C   0  0  0  0  0  0  0  0  0  0  0  0
    4.1358   -0.8746    0.1048 C   0  0  0  0  0  0  0  0  0  0  0  0
    5.8400   -1.0157   -0.1303 Cl  0  0  0  0  0  0  0  0  0  0  0  0
    3.5311   -1.8397    0.9158 C   0  0  0  0  0  0  0  0  0  0  0  0
    2.1598   -1.7931    1.1675 C   0  0  0  0  0  0  0  0  0  0  0  0
    1.6680   -2.7719    1.9895 O   0  0  0  0  0  0  0  0  0  0  0  0
    4.0473    1.3901   -1.4826 S   0  0  0  0  0  6  0  0  0  0  0  0
    5.1182    2.1851   -0.4694 N   0  0  0  0  0  0  0  0  0  0  0  0
    3.0178    2.3630   -1.7748 O   0  0  0  0  0  0  0  0  0  0  0  0
    4.8131    0.7649   -2.5319 O   0  0  0  0  0  0  0  0  0  0  0  0
   -1.7984   -1.3188   -2.4680 H   0  0  0  0  0  0  0  0  0  0  0  0
   -1.6891    0.4357   -2.8105 H   0  0  0  0  0  0  0  0  0  0  0  0
   -3.0919   -0.4959   -3.3389 H   0  0  0  0  0  0  0  0  0  0  0  0
   -4.9979   -0.0514   -2.1254 H   0  0  0  0  0  0  0  0  0  0  0  0
   -6.1915    0.3979   -0.0227 H   0  0  0  0  0  0  0  0  0  0  0  0
   -4.9438    0.6899    2.0753 H   0  0  0  0  0  0  0  0  0  0  0  0
   -2.2783   -0.2190    3.1298 H   0  0  0  0  0  0  0  0  0  0  0  0
   -1.3285    1.0985    2.3649 H   0  0  0  0  0  0  0  0  0  0  0  0
   -2.8974    1.4366    3.0490 H   0  0  0  0  0  0  0  0  0  0  0  0
   -0.4973   -0.0770   -0.9921 H   0  0  0  0  0  0  0  0  0  0  0  0
    1.3758    1.0043   -0.6055 H   0  0  0  0  0  0  0  0  0  0  0  0
    4.1236   -2.6342    1.3655 H   0  0  0  0  0  0  0  0  0  0  0  0
    0.7312   -2.5532    2.2045 H   0  0  0  0  0  0  0  0  0  0  0  0
    6.0784    2.0402   -0.7873 H   0  0  0  0  0  0  0  0  0  0  0  0
    4.8587    3.1679   -0.3776 H   0  0  0  0  0  0  0  0  0  0  0  0
  1  2  1  0
  2  3  2  0
  3  4  1  0
  4  5  2  0
  5  6  1  0
  6  7  1  0
  6  8  2  0
  8  9  1  0
  9 10  1  0
 10 11  2  0
 10 12  1  0
 12 13  2  0
 13 14  1  0
 14 15  2  0
 15 16  1  0
 15 17  1  0
 17 18  2  0
 18 19  1  0
 14 20  1  0
 20 21  1  0
 20 22  2  0
 20 23  2  0
  8  2  1  0
 18 12  1  0
  1 24  1  0
  1 25  1  0
  1 26  1  0
  3 27  1  0
  4 28  1  0
  5 29  1  0
  7 30  1  0
  7 31  1  0
  7 32  1  0
  9 33  1  0
 13 34  1  0
 17 35  1  0
 19 36  1  0
 21 37  1  0
 21 38  1  0
M  END
>  <Energy>  (1) 
-55.655094949903756

>  <Real charge>  (1) 
0

>  <Mult>  (1) 
1

$$$$
mol_947 106
     RDKit          3D

 38 39  0  0  0  0  0  0  0  0999 V2000
   -2.0421    2.2043    1.5038 C   0  0  0  0  0  0  0  0  0  0  0  0
   -2.8540    1.0533    0.9676 C   0  0  0  0  0  0  0  0  0  0  0  0
   -4.2415    1.0744    1.1868 C   0  0  0  0  0  0  0  0  0  0  0  0
   -5.0523    0.0577    0.6996 C   0  0  0  0  0  0  0  0  0  0  0  0
   -4.4810   -1.0098    0.0168 C   0  0  0  0  0  0  0  0  0  0  0  0
   -3.0909   -1.0804   -0.1971 C   0  0  0  0  0  0  0  0  0  0  0  0
   -2.5794   -2.3431   -0.8380 C   0  0  0  0  0  0  0  0  0  0  0  0
   -2.2734   -0.0123    0.2331 C   0  0  0  0  0  0  0  0  0  0  0  0
   -0.8702    0.0301    0.0234 N   0  0  0  0  0  0  0  0  0  0  0  0
   -0.2116   -0.3491   -1.1316 C   0  0  0  0  0  0  0  0  0  0  0  0
   -0.7323   -0.6795   -2.1931 O   0  0  0  0  0  0  0  0  0  0  0  0
    1.2785   -0.2474   -1.1015 C   0  0  0  0  0  0  0  0  0  0  0  0
    1.9920   -0.2875    0.1042 C   0  0  0  0  0  0  0  0  0  0  0  0
    3.3960   -0.1799    0.1046 C   0  0  0  0  0  0  0  0  0  0  0  0
    4.0964   -0.0551   -1.0975 C   0  0  0  0  0  0  0  0  0  0  0  0
    5.8137    0.0791   -1.2073 Cl  0  0  0  0  0  0  0  0  0  0  0  0
    3.3857   -0.0368   -2.3011 C   0  0  0  0  0  0  0  0  0  0  0  0
    1.9943   -0.1396   -2.3024 C   0  0  0  0  0  0  0  0  0  0  0  0
    1.3947   -0.1277   -3.5337 O   0  0  0  0  0  0  0  0  0  0  0  0
    4.2288   -0.2293    1.6609 S   0  0  0  0  0  6  0  0  0  0  0  0
    5.0254    1.2443    1.7239 N   0  0  0  0  0  0  0  0  0  0  0  0
    5.2280   -1.2678    1.6374 O   0  0  0  0  0  0  0  0  0  0  0  0
    3.2346   -0.1482    2.7084 O   0  0  0  0  0  0  0  0  0  0  0  0
   -1.3292    1.8480    2.2543 H   0  0  0  0  0  0  0  0  0  0  0  0
   -2.6750    2.9577    1.9852 H   0  0  0  0  0  0  0  0  0  0  0  0
   -1.5049    2.7037    0.6909 H   0  0  0  0  0  0  0  0  0  0  0  0
   -4.7026    1.8949    1.7327 H   0  0  0  0  0  0  0  0  0  0  0  0
   -6.1261    0.0874    0.8642 H   0  0  0  0  0  0  0  0  0  0  0  0
   -5.1272   -1.8130   -0.3334 H   0  0  0  0  0  0  0  0  0  0  0  0
   -1.5643   -2.5847   -0.5104 H   0  0  0  0  0  0  0  0  0  0  0  0
   -3.1966   -3.1997   -0.5417 H   0  0  0  0  0  0  0  0  0  0  0  0
   -2.6183   -2.2645   -1.9280 H   0  0  0  0  0  0  0  0  0  0  0  0
   -0.3655    0.6750    0.6149 H   0  0  0  0  0  0  0  0  0  0  0  0
    1.4687   -0.4316    1.0475 H   0  0  0  0  0  0  0  0  0  0  0  0
    3.9092    0.0511   -3.2513 H   0  0  0  0  0  0  0  0  0  0  0  0
    0.4416   -0.3499   -3.4152 H   0  0  0  0  0  0  0  0  0  0  0  0
    4.7148    1.7794    2.5355 H   0  0  0  0  0  0  0  0  0  0  0  0
    6.0363    1.0962    1.6930 H   0  0  0  0  0  0  0  0  0  0  0  0
  1  2  1  0
  2  3  2  0
  3  4  1  0
  4  5  2  0
  5  6  1  0
  6  7  1  0
  6  8  2  0
  8  9  1  0
  9 10  1  0
 10 11  2  0
 10 12  1  0
 12 13  2  0
 13 14  1  0
 14 15  2  0
 15 16  1  0
 15 17  1  0
 17 18  2  0
 18 19  1  0
 14 20  1  0
 20 21  1  0
 20 22  2  0
 20 23  2  0
  8  2  1  0
 18 12  1  0
  1 24  1  0
  1 25  1  0
  1 26  1  0
  3 27  1  0
  4 28  1  0
  5 29  1  0
  7 30  1  0
  7 31  1  0
  7 32  1  0
  9 33  1  0
 13 34  1  0
 17 35  1  0
 19 36  1  0
 21 37  1  0
 21 38  1  0
M  END
>  <Energy>  (2) 
-55.46815369525291

>  <Real charge>  (2) 
0

>  <Mult>  (2) 
1

$$$$
