mol_678 108
     RDKit          3D

 29 29  0  0  0  0  0  0  0  0999 V2000
    2.4616    0.4682    1.6225 C   0  0  0  0  0  0  0  0  0  0  0  0
    2.5201    0.5320    0.1010 C   0  0  0  0  0  0  0  0  0  0  0  0
    1.5722   -0.4760   -0.5826 C   0  0  0  0  0  0  0  0  0  0  0  0
    1.8140   -0.4923   -2.0980 C   0  0  0  0  0  0  0  0  0  0  0  0
    0.0984   -0.2089   -0.2786 C   0  0  0  0  0  0  0  0  0  0  0  0
   -0.4857    1.0174   -0.6542 C   0  0  0  0  0  0  0  0  0  0  0  0
   -1.8352    1.2819   -0.3818 C   0  0  0  0  0  0  0  0  0  0  0  0
   -2.6306    0.3335    0.2680 C   0  0  0  0  0  0  0  0  0  0  0  0
   -2.0594   -0.8918    0.6458 C   0  0  0  0  0  0  0  0  0  0  0  0
   -2.9108   -1.8748    1.3274 N   0  0  0  0  0  4  0  0  0  0  0  0
   -2.3907   -2.9521    1.6575 O   0  0  0  0  0  1  0  0  0  0  0  0
   -4.0939   -1.5754    1.5338 O   0  0  0  0  0  0  0  0  0  0  0  0
   -0.7035   -1.1667    0.3763 C   0  0  0  0  0  0  0  0  0  0  0  0
   -0.0875   -2.3420    0.7207 O   0  0  0  0  0  0  0  0  0  0  0  0
   -2.4184    2.5702   -0.7839 N   0  0  0  0  0  4  0  0  0  0  0  0
   -1.6800    3.3840   -1.3547 O   0  0  0  0  0  1  0  0  0  0  0  0
   -3.6143    2.7622   -0.5264 O   0  0  0  0  0  0  0  0  0  0  0  0
    1.4800    0.7690    2.0007 H   0  0  0  0  0  0  0  0  0  0  0  0
    3.2060    1.1444    2.0549 H   0  0  0  0  0  0  0  0  0  0  0  0
    2.6755   -0.5437    1.9812 H   0  0  0  0  0  0  0  0  0  0  0  0
    2.3070    1.5574   -0.2231 H   0  0  0  0  0  0  0  0  0  0  0  0
    3.5510    0.3174   -0.2080 H   0  0  0  0  0  0  0  0  0  0  0  0
    1.8526   -1.4720   -0.2198 H   0  0  0  0  0  0  0  0  0  0  0  0
    1.1516   -1.2117   -2.5925 H   0  0  0  0  0  0  0  0  0  0  0  0
    1.6422    0.4892   -2.5528 H   0  0  0  0  0  0  0  0  0  0  0  0
    2.8468   -0.7830   -2.3193 H   0  0  0  0  0  0  0  0  0  0  0  0
    0.1231    1.7656   -1.1618 H   0  0  0  0  0  0  0  0  0  0  0  0
   -3.6786    0.5460    0.4766 H   0  0  0  0  0  0  0  0  0  0  0  0
   -0.7135   -2.9480    1.1712 H   0  0  0  0  0  0  0  0  0  0  0  0
  1  2  1  0
  2  3  1  0
  3  4  1  0
  3  5  1  0
  5  6  2  0
  6  7  1  0
  7  8  2  0
  8  9  1  0
  9 10  1  0
 10 11  1  0
 10 12  2  0
  9 13  2  0
 13 14  1  0
  7 15  1  0
 15 16  1  0
 15 17  2  0
 13  5  1  0
  1 18  1  0
  1 19  1  0
  1 20  1  0
  2 21  1  0
  2 22  1  0
  3 23  1  0
  4 24  1  0
  4 25  1  0
  4 26  1  0
  6 27  1  0
  8 28  1  0
 14 29  1  0
M  CHG  4  10   1  11  -1  15   1  16  -1
M  END
>  <Energy>  (1) 
74.80373893607862

>  <Real charge>  (1) 
0

>  <Mult>  (1) 
1

$$$$
mol_678 434
     RDKit          3D

 29 29  0  0  0  0  0  0  0  0999 V2000
   -2.5734    0.8993    1.2152 C   0  0  0  0  0  0  0  0  0  0  0  0
   -2.5674   -0.0707    0.0400 C   0  0  0  0  0  0  0  0  0  0  0  0
   -1.4397    0.2115   -0.9742 C   0  0  0  0  0  0  0  0  0  0  0  0
   -1.5854   -0.6743   -2.2179 C   0  0  0  0  0  0  0  0  0  0  0  0
   -0.0320    0.1249   -0.3861 C   0  0  0  0  0  0  0  0  0  0  0  0
    0.7593    1.2919   -0.4010 C   0  0  0  0  0  0  0  0  0  0  0  0
    2.0589    1.2860    0.1243 C   0  0  0  0  0  0  0  0  0  0  0  0
    2.5992    0.1202    0.6740 C   0  0  0  0  0  0  0  0  0  0  0  0
    1.8215   -1.0483    0.6928 C   0  0  0  0  0  0  0  0  0  0  0  0
    2.4082   -2.2626    1.2743 N   0  0  0  0  0  4  0  0  0  0  0  0
    3.5614   -2.1957    1.7187 O   0  0  0  0  0  1  0  0  0  0  0  0
    1.7094   -3.2880    1.2855 O   0  0  0  0  0  0  0  0  0  0  0  0
    0.5130   -1.0521    0.1667 C   0  0  0  0  0  0  0  0  0  0  0  0
   -0.2895   -2.1618    0.1570 O   0  0  0  0  0  0  0  0  0  0  0  0
    2.8599    2.5185    0.0968 N   0  0  0  0  0  4  0  0  0  0  0  0
    4.0037    2.4684    0.5685 O   0  0  0  0  0  1  0  0  0  0  0  0
    2.3434    3.5305   -0.3954 O   0  0  0  0  0  0  0  0  0  0  0  0
   -2.6326    1.9360    0.8686 H   0  0  0  0  0  0  0  0  0  0  0  0
   -3.4407    0.7073    1.8551 H   0  0  0  0  0  0  0  0  0  0  0  0
   -1.6758    0.7903    1.8313 H   0  0  0  0  0  0  0  0  0  0  0  0
   -2.5151   -1.0948    0.4241 H   0  0  0  0  0  0  0  0  0  0  0  0
   -3.5335    0.0136   -0.4738 H   0  0  0  0  0  0  0  0  0  0  0  0
   -1.5938    1.2414   -1.3266 H   0  0  0  0  0  0  0  0  0  0  0  0
   -0.7898   -0.4674   -2.9423 H   0  0  0  0  0  0  0  0  0  0  0  0
   -1.5502   -1.7411   -1.9776 H   0  0  0  0  0  0  0  0  0  0  0  0
   -2.5440   -0.4828   -2.7128 H   0  0  0  0  0  0  0  0  0  0  0  0
    0.3490    2.2085   -0.8263 H   0  0  0  0  0  0  0  0  0  0  0  0
    3.6098    0.1222    1.0808 H   0  0  0  0  0  0  0  0  0  0  0  0
    0.1660   -2.9311    0.5600 H   0  0  0  0  0  0  0  0  0  0  0  0
  1  2  1  0
  2  3  1  0
  3  4  1  0
  3  5  1  0
  5  6  2  0
  6  7  1  0
  7  8  2  0
  8  9  1  0
  9 10  1  0
 10 11  1  0
 10 12  2  0
  9 13  2  0
 13 14  1  0
  7 15  1  0
 15 16  1  0
 15 17  2  0
 13  5  1  0
  1 18  1  0
  1 19  1  0
  1 20  1  0
  2 21  1  0
  2 22  1  0
  3 23  1  0
  4 24  1  0
  4 25  1  0
  4 26  1  0
  6 27  1  0
  8 28  1  0
 14 29  1  0
M  CHG  4  10   1  11  -1  15   1  16  -1
M  END
>  <Energy>  (2) 
75.51193224545811

>  <Real charge>  (2) 
0

>  <Mult>  (2) 
1

$$$$
mol_678 400
     RDKit          3D

 29 29  0  0  0  0  0  0  0  0999 V2000
    3.7498    0.1245   -0.3438 C   0  0  0  0  0  0  0  0  0  0  0  0
    2.2612    0.1651   -0.6622 C   0  0  0  0  0  0  0  0  0  0  0  0
    1.3724   -0.3078    0.5070 C   0  0  0  0  0  0  0  0  0  0  0  0
    1.5987   -1.7835    0.8608 C   0  0  0  0  0  0  0  0  0  0  0  0
   -0.1020   -0.0389    0.1974 C   0  0  0  0  0  0  0  0  0  0  0  0
   -0.7381   -0.7369   -0.8488 C   0  0  0  0  0  0  0  0  0  0  0  0
   -2.0868   -0.5023   -1.1510 C   0  0  0  0  0  0  0  0  0  0  0  0
   -2.8287    0.4318   -0.4219 C   0  0  0  0  0  0  0  0  0  0  0  0
   -2.2036    1.1365    0.6189 C   0  0  0  0  0  0  0  0  0  0  0  0
   -2.9987    2.1157    1.3707 N   0  0  0  0  0  4  0  0  0  0  0  0
   -2.4309    2.7341    2.2846 O   0  0  0  0  0  1  0  0  0  0  0  0
   -4.1849    2.2687    1.0524 O   0  0  0  0  0  0  0  0  0  0  0  0
   -0.8480    0.9078    0.9298 C   0  0  0  0  0  0  0  0  0  0  0  0
   -0.1800    1.5673    1.9290 O   0  0  0  0  0  0  0  0  0  0  0  0
   -2.7258   -1.2458   -2.2466 N   0  0  0  0  0  4  0  0  0  0  0  0
   -3.9175   -1.0060   -2.4822 O   0  0  0  0  0  1  0  0  0  0  0  0
   -2.0350   -2.0654   -2.8667 O   0  0  0  0  0  0  0  0  0  0  0  0
    4.3217    0.5569   -1.1712 H   0  0  0  0  0  0  0  0  0  0  0  0
    4.1017   -0.9011   -0.1999 H   0  0  0  0  0  0  0  0  0  0  0  0
    3.9749    0.6999    0.5595 H   0  0  0  0  0  0  0  0  0  0  0  0
    1.9965    1.1981   -0.9230 H   0  0  0  0  0  0  0  0  0  0  0  0
    2.0763   -0.4390   -1.5589 H   0  0  0  0  0  0  0  0  0  0  0  0
    1.6672    0.2656    1.3938 H   0  0  0  0  0  0  0  0  0  0  0  0
    2.6091   -1.9431    1.2504 H   0  0  0  0  0  0  0  0  0  0  0  0
    0.8956   -2.1122    1.6346 H   0  0  0  0  0  0  0  0  0  0  0  0
    1.4712   -2.4383   -0.0078 H   0  0  0  0  0  0  0  0  0  0  0  0
   -0.1698   -1.4646   -1.4282 H   0  0  0  0  0  0  0  0  0  0  0  0
   -3.8765    0.6089   -0.6622 H   0  0  0  0  0  0  0  0  0  0  0  0
   -0.7701    2.2040    2.3854 H   0  0  0  0  0  0  0  0  0  0  0  0
  1  2  1  0
  2  3  1  0
  3  4  1  0
  3  5  1  0
  5  6  2  0
  6  7  1  0
  7  8  2  0
  8  9  1  0
  9 10  1  0
 10 11  1  0
 10 12  2  0
  9 13  2  0
 13 14  1  0
  7 15  1  0
 15 16  1  0
 15 17  2  0
 13  5  1  0
  1 18  1  0
  1 19  1  0
  1 20  1  0
  2 21  1  0
  2 22  1  0
  3 23  1  0
  4 24  1  0
  4 25  1  0
  4 26  1  0
  6 27  1  0
  8 28  1  0
 14 29  1  0
M  CHG  4  10   1  11  -1  15   1  16  -1
M  END
>  <Energy>  (3) 
75.79603455740295

>  <Real charge>  (3) 
0

>  <Mult>  (3) 
1

$$$$
