mol_497 65
     RDKit          3D

 25 27  0  0  0  0  0  0  0  0999 V2000
   -2.9199    1.7871   -0.1899 N   0  0  0  0  0  0  0  0  0  0  0  0
   -2.4594    0.4646   -0.0163 C   0  0  0  0  0  0  0  0  0  0  0  0
   -3.3943   -0.5153    0.3362 C   0  0  0  0  0  0  0  0  0  0  0  0
   -2.9870   -1.8175    0.5986 C   0  0  0  0  0  0  0  0  0  0  0  0
   -1.6318   -2.1376    0.5512 C   0  0  0  0  0  0  0  0  0  0  0  0
   -0.6651   -1.1833    0.2758 C   0  0  0  0  0  0  0  0  0  0  0  0
    0.6218   -1.5730    0.2878 N   0  0  0  0  0  0  0  0  0  0  0  0
    1.5871   -0.6676    0.0617 C   0  0  0  0  0  0  0  0  0  0  0  0
    2.9170   -1.0679    0.0785 C   0  0  0  0  0  0  0  0  0  0  0  0
    3.9610   -0.1648   -0.1436 C   0  0  0  0  0  0  0  0  0  0  0  0
    3.6764    1.1733   -0.3882 C   0  0  0  0  0  0  0  0  0  0  0  0
    2.3504    1.6001   -0.4111 C   0  0  0  0  0  0  0  0  0  0  0  0
    1.3046    0.6852   -0.1891 C   0  0  0  0  0  0  0  0  0  0  0  0
   -0.0402    1.0758   -0.2084 C   0  0  0  0  0  0  0  0  0  0  0  0
   -1.0724    0.1426    0.0132 C   0  0  0  0  0  0  0  0  0  0  0  0
   -3.8983    1.8410   -0.4576 H   0  0  0  0  0  0  0  0  0  0  0  0
   -2.3382    2.3419   -0.8081 H   0  0  0  0  0  0  0  0  0  0  0  0
   -4.4515   -0.2708    0.3992 H   0  0  0  0  0  0  0  0  0  0  0  0
   -3.7180   -2.5812    0.8493 H   0  0  0  0  0  0  0  0  0  0  0  0
   -1.3168   -3.1579    0.7589 H   0  0  0  0  0  0  0  0  0  0  0  0
    3.1460   -2.1132    0.2723 H   0  0  0  0  0  0  0  0  0  0  0  0
    4.9907   -0.5117   -0.1222 H   0  0  0  0  0  0  0  0  0  0  0  0
    4.4825    1.8818   -0.5598 H   0  0  0  0  0  0  0  0  0  0  0  0
    2.1349    2.6487   -0.6023 H   0  0  0  0  0  0  0  0  0  0  0  0
   -0.2795    2.1198   -0.3860 H   0  0  0  0  0  0  0  0  0  0  0  0
  1  2  1  0
  2  3  2  0
  3  4  1  0
  4  5  2  0
  5  6  1  0
  6  7  2  0
  7  8  1  0
  8  9  2  0
  9 10  1  0
 10 11  2  0
 11 12  1  0
 12 13  2  0
 13 14  1  0
 14 15  2  0
 13  8  1  0
 15  2  1  0
 15  6  1  0
  1 16  1  0
  1 17  1  0
  3 18  1  0
  4 19  1  0
  5 20  1  0
  9 21  1  0
 10 22  1  0
 11 23  1  0
 12 24  1  0
 14 25  1  0
M  END
>  <Energy>  (1) 
53.65629646864199

>  <Real charge>  (1) 
0

>  <Mult>  (1) 
1

$$$$
