mol_546 50
     RDKit          3D

 14 14  0  0  0  0  0  0  0  0999 V2000
    2.7941   -1.5859    0.9659 Cl  0  0  0  0  0  0  0  0  0  0  0  0
    1.4929   -0.5979    0.4263 C   0  0  0  0  0  0  0  0  0  0  0  0
    1.7499    0.7045   -0.0060 C   0  0  0  0  0  0  0  0  0  0  0  0
    0.7016    1.5151   -0.4460 C   0  0  0  0  0  0  0  0  0  0  0  0
   -0.6043    1.0224   -0.4534 C   0  0  0  0  0  0  0  0  0  0  0  0
   -0.8516   -0.2877   -0.0169 C   0  0  0  0  0  0  0  0  0  0  0  0
    0.1956   -1.1056    0.4255 C   0  0  0  0  0  0  0  0  0  0  0  0
   -2.2240   -0.8078   -0.0239 N   0  0  0  0  0  4  0  0  0  0  0  0
   -3.1234   -0.0545   -0.4222 O   0  0  0  0  0  1  0  0  0  0  0  0
   -2.4017   -1.9693    0.3689 O   0  0  0  0  0  0  0  0  0  0  0  0
    2.7658    1.0935   -0.0023 H   0  0  0  0  0  0  0  0  0  0  0  0
    0.9036    2.5299   -0.7826 H   0  0  0  0  0  0  0  0  0  0  0  0
   -1.4117    1.6657   -0.7991 H   0  0  0  0  0  0  0  0  0  0  0  0
    0.0133   -2.1224    0.7656 H   0  0  0  0  0  0  0  0  0  0  0  0
  1  2  1  0
  2  3  2  0
  3  4  1  0
  4  5  2  0
  5  6  1  0
  6  7  2  0
  6  8  1  0
  8  9  1  0
  8 10  2  0
  7  2  1  0
  3 11  1  0
  4 12  1  0
  5 13  1  0
  7 14  1  0
M  CHG  2   8   1   9  -1
M  END
>  <Energy>  (1) 
36.99398262751569

>  <Real charge>  (1) 
0

>  <Mult>  (1) 
1

$$$$
