mol_651 9
     RDKit          3D

 26 29  0  0  0  0  0  0  0  0999 V2000
    3.4437   -0.6776    0.1781 C   0  0  0  0  0  0  0  0  0  0  0  0
    2.5219   -1.7139    0.3225 C   0  0  0  0  0  0  0  0  0  0  0  0
    1.1441   -1.4595    0.2538 C   0  0  0  0  0  0  0  0  0  0  0  0
    0.2029   -2.4880    0.3965 C   0  0  0  0  0  0  0  0  0  0  0  0
   -1.1663   -2.2186    0.3257 C   0  0  0  0  0  0  0  0  0  0  0  0
   -1.6299   -0.9137    0.1103 C   0  0  0  0  0  0  0  0  0  0  0  0
   -3.0011   -0.6272    0.0368 C   0  0  0  0  0  0  0  0  0  0  0  0
   -3.4437    0.6776   -0.1781 C   0  0  0  0  0  0  0  0  0  0  0  0
   -2.5219    1.7139   -0.3225 C   0  0  0  0  0  0  0  0  0  0  0  0
   -1.1441    1.4595   -0.2538 C   0  0  0  0  0  0  0  0  0  0  0  0
   -0.2029    2.4880   -0.3965 C   0  0  0  0  0  0  0  0  0  0  0  0
    1.1663    2.2186   -0.3257 C   0  0  0  0  0  0  0  0  0  0  0  0
    1.6299    0.9137   -0.1103 C   0  0  0  0  0  0  0  0  0  0  0  0
    3.0011    0.6272   -0.0368 C   0  0  0  0  0  0  0  0  0  0  0  0
    0.6943   -0.1366    0.0359 C   0  0  0  0  0  0  0  0  0  0  0  0
   -0.6943    0.1366   -0.0359 C   0  0  0  0  0  0  0  0  0  0  0  0
    4.5088   -0.8871    0.2332 H   0  0  0  0  0  0  0  0  0  0  0  0
    2.8877   -2.7245    0.4894 H   0  0  0  0  0  0  0  0  0  0  0  0
    0.5282   -3.5123    0.5648 H   0  0  0  0  0  0  0  0  0  0  0  0
   -1.8695   -3.0405    0.4408 H   0  0  0  0  0  0  0  0  0  0  0  0
   -3.7363   -1.4212    0.1468 H   0  0  0  0  0  0  0  0  0  0  0  0
   -4.5088    0.8871   -0.2332 H   0  0  0  0  0  0  0  0  0  0  0  0
   -2.8877    2.7245   -0.4894 H   0  0  0  0  0  0  0  0  0  0  0  0
   -0.5282    3.5123   -0.5648 H   0  0  0  0  0  0  0  0  0  0  0  0
    1.8695    3.0405   -0.4408 H   0  0  0  0  0  0  0  0  0  0  0  0
    3.7363    1.4212   -0.1468 H   0  0  0  0  0  0  0  0  0  0  0  0
  1  2  2  0
  2  3  1  0
  3  4  2  0
  4  5  1  0
  5  6  2  0
  6  7  1  0
  7  8  2  0
  8  9  1  0
  9 10  2  0
 10 11  1  0
 11 12  2  0
 12 13  1  0
 13 14  2  0
 13 15  1  0
 15 16  2  0
 14  1  1  0
 15  3  1  0
 16  6  1  0
 16 10  1  0
  1 17  1  0
  2 18  1  0
  4 19  1  0
  5 20  1  0
  7 21  1  0
  8 22  1  0
  9 23  1  0
 11 24  1  0
 12 25  1  0
 14 26  1  0
M  END
>  <Energy>  (1) 
59.539205788490406

>  <Real charge>  (1) 
0

>  <Mult>  (1) 
1

$$$$
