mol_1002 68
     RDKit          3D

 20 20  0  0  0  0  0  0  0  0999 V2000
   -2.1361    1.0894    0.1273 C   0  0  0  0  0  0  0  0  0  0  0  0
   -1.2787   -0.0714    0.3592 N   0  0  0  0  0  0  0  0  0  0  0  0
   -1.9432   -1.3711    0.2840 C   0  0  0  0  0  0  0  0  0  0  0  0
    0.0801    0.0140    0.0267 C   0  0  0  0  0  0  0  0  0  0  0  0
    0.7185    1.2470   -0.2039 C   0  0  0  0  0  0  0  0  0  0  0  0
    2.0811    1.3390   -0.5211 C   0  0  0  0  0  0  0  0  0  0  0  0
    2.8567    0.1913   -0.6073 C   0  0  0  0  0  0  0  0  0  0  0  0
    2.2679   -1.0427   -0.3693 C   0  0  0  0  0  0  0  0  0  0  0  0
    0.9044   -1.1240   -0.0529 C   0  0  0  0  0  0  0  0  0  0  0  0
   -2.1417    1.3704   -0.9317 H   0  0  0  0  0  0  0  0  0  0  0  0
   -1.8197    1.9443    0.7345 H   0  0  0  0  0  0  0  0  0  0  0  0
   -3.1720    0.8828    0.4194 H   0  0  0  0  0  0  0  0  0  0  0  0
   -1.8946   -1.7808   -0.7309 H   0  0  0  0  0  0  0  0  0  0  0  0
   -1.5039   -2.0829    0.9911 H   0  0  0  0  0  0  0  0  0  0  0  0
   -3.0014   -1.2926    0.5580 H   0  0  0  0  0  0  0  0  0  0  0  0
    0.1697    2.1811   -0.1390 H   0  0  0  0  0  0  0  0  0  0  0  0
    2.5295    2.3136   -0.6942 H   0  0  0  0  0  0  0  0  0  0  0  0
    3.9130    0.2587   -0.8502 H   0  0  0  0  0  0  0  0  0  0  0  0
    2.8638   -1.9498   -0.4225 H   0  0  0  0  0  0  0  0  0  0  0  0
    0.5067   -2.1163    0.1347 H   0  0  0  0  0  0  0  0  0  0  0  0
  1  2  1  0
  2  3  1  0
  2  4  1  0
  4  5  2  0
  5  6  1  0
  6  7  2  0
  7  8  1  0
  8  9  2  0
  9  4  1  0
  1 10  1  0
  1 11  1  0
  1 12  1  0
  3 13  1  0
  3 14  1  0
  3 15  1  0
  5 16  1  0
  6 17  1  0
  7 18  1  0
  8 19  1  0
  9 20  1  0
M  END
>  <Energy>  (1) 
19.30640469866632

>  <Real charge>  (1) 
0

>  <Mult>  (1) 
1

$$$$
