mol_46 444
     RDKit          3D

 24 23  0  0  0  0  0  0  0  0999 V2000
   -3.9378    0.2852   -0.0668 C   0  0  0  0  0  0  0  0  0  0  0  0
   -2.6170   -0.1980   -0.6442 C   0  0  0  0  0  0  0  0  0  0  0  0
   -1.4320    0.2691    0.2008 C   0  0  0  0  0  0  0  0  0  0  0  0
   -0.1049   -0.2190   -0.3837 C   0  0  0  0  0  0  0  0  0  0  0  0
    1.0822    0.2514    0.4640 C   0  0  0  0  0  0  0  0  0  0  0  0
    2.4239   -0.1961   -0.1234 C   0  0  0  0  0  0  0  0  0  0  0  0
    3.5905    0.3447    0.6925 C   0  0  0  0  0  0  0  0  0  0  0  0
    2.4832   -1.6197   -0.1228 O   0  0  0  0  0  0  0  0  0  0  0  0
   -4.0866   -0.0990    0.9474 H   0  0  0  0  0  0  0  0  0  0  0  0
   -3.9728    1.3787   -0.0290 H   0  0  0  0  0  0  0  0  0  0  0  0
   -4.7713   -0.0601   -0.6865 H   0  0  0  0  0  0  0  0  0  0  0  0
   -2.5142    0.1766   -1.6693 H   0  0  0  0  0  0  0  0  0  0  0  0
   -2.6274   -1.2929   -0.6983 H   0  0  0  0  0  0  0  0  0  0  0  0
   -1.5417   -0.1051    1.2260 H   0  0  0  0  0  0  0  0  0  0  0  0
   -1.4291    1.3646    0.2552 H   0  0  0  0  0  0  0  0  0  0  0  0
   -0.1135   -1.3139   -0.4402 H   0  0  0  0  0  0  0  0  0  0  0  0
    0.0050    0.1574   -1.4080 H   0  0  0  0  0  0  0  0  0  0  0  0
    0.9708   -0.1554    1.4771 H   0  0  0  0  0  0  0  0  0  0  0  0
    1.0623    1.3451    0.5428 H   0  0  0  0  0  0  0  0  0  0  0  0
    2.5103    0.1463   -1.1608 H   0  0  0  0  0  0  0  0  0  0  0  0
    3.5567   -0.0306    1.7213 H   0  0  0  0  0  0  0  0  0  0  0  0
    4.5429    0.0102    0.2674 H   0  0  0  0  0  0  0  0  0  0  0  0
    3.5863    1.4386    0.7165 H   0  0  0  0  0  0  0  0  0  0  0  0
    3.3341   -1.8782   -0.5160 H   0  0  0  0  0  0  0  0  0  0  0  0
  1  2  1  0
  2  3  1  0
  3  4  1  0
  4  5  1  0
  5  6  1  0
  6  7  1  0
  6  8  1  0
  1  9  1  0
  1 10  1  0
  1 11  1  0
  2 12  1  0
  2 13  1  0
  3 14  1  0
  3 15  1  0
  4 16  1  0
  4 17  1  0
  5 18  1  0
  5 19  1  0
  6 20  1  0
  7 21  1  0
  7 22  1  0
  7 23  1  0
  8 24  1  0
M  END
>  <Energy>  (1) 
0.4176970072115824

>  <Real charge>  (1) 
0

>  <Mult>  (1) 
1

$$$$
mol_46 95
     RDKit          3D

 24 23  0  0  0  0  0  0  0  0999 V2000
    3.8729   -0.0274    0.5251 C   0  0  0  0  0  0  0  0  0  0  0  0
    2.6569   -0.2071   -0.3696 C   0  0  0  0  0  0  0  0  0  0  0  0
    1.3604    0.1023    0.3786 C   0  0  0  0  0  0  0  0  0  0  0  0
    0.1393   -0.0795   -0.5251 C   0  0  0  0  0  0  0  0  0  0  0  0
   -1.1594    0.2321    0.2261 C   0  0  0  0  0  0  0  0  0  0  0  0
   -2.3927    0.0919   -0.6722 C   0  0  0  0  0  0  0  0  0  0  0  0
   -3.6691    0.4653    0.0694 C   0  0  0  0  0  0  0  0  0  0  0  0
   -2.5105   -1.2499   -1.1375 O   0  0  0  0  0  0  0  0  0  0  0  0
    3.9426    1.0023    0.8902 H   0  0  0  0  0  0  0  0  0  0  0  0
    3.8258   -0.6965    1.3902 H   0  0  0  0  0  0  0  0  0  0  0  0
    4.7886   -0.2537   -0.0300 H   0  0  0  0  0  0  0  0  0  0  0  0
    2.6346   -1.2374   -0.7433 H   0  0  0  0  0  0  0  0  0  0  0  0
    2.7507    0.4521   -1.2405 H   0  0  0  0  0  0  0  0  0  0  0  0
    1.2733   -0.5570    1.2509 H   0  0  0  0  0  0  0  0  0  0  0  0
    1.3900    1.1325    0.7539 H   0  0  0  0  0  0  0  0  0  0  0  0
    0.1155   -1.1092   -0.9012 H   0  0  0  0  0  0  0  0  0  0  0  0
    0.2260    0.5816   -1.3960 H   0  0  0  0  0  0  0  0  0  0  0  0
   -1.2439   -0.4548    1.0777 H   0  0  0  0  0  0  0  0  0  0  0  0
   -1.1131    1.2513    0.6283 H   0  0  0  0  0  0  0  0  0  0  0  0
   -2.2881    0.7359   -1.5522 H   0  0  0  0  0  0  0  0  0  0  0  0
   -3.8267   -0.1873    0.9353 H   0  0  0  0  0  0  0  0  0  0  0  0
   -4.5400    0.3381   -0.5826 H   0  0  0  0  0  0  0  0  0  0  0  0
   -3.6395    1.5034    0.4140 H   0  0  0  0  0  0  0  0  0  0  0  0
   -2.5937   -1.8291   -0.3607 H   0  0  0  0  0  0  0  0  0  0  0  0
  1  2  1  0
  2  3  1  0
  3  4  1  0
  4  5  1  0
  5  6  1  0
  6  7  1  0
  6  8  1  0
  1  9  1  0
  1 10  1  0
  1 11  1  0
  2 12  1  0
  2 13  1  0
  3 14  1  0
  3 15  1  0
  4 16  1  0
  4 17  1  0
  5 18  1  0
  5 19  1  0
  6 20  1  0
  7 21  1  0
  7 22  1  0
  7 23  1  0
  8 24  1  0
M  END
>  <Energy>  (2) 
0.5151511268528486

>  <Real charge>  (2) 
0

>  <Mult>  (2) 
1

$$$$
mol_46 288
     RDKit          3D

 24 23  0  0  0  0  0  0  0  0999 V2000
    3.8246    0.6770   -0.1977 C   0  0  0  0  0  0  0  0  0  0  0  0
    2.6243   -0.2557   -0.2253 C   0  0  0  0  0  0  0  0  0  0  0  0
    1.3187    0.5048    0.0059 C   0  0  0  0  0  0  0  0  0  0  0  0
    0.1130   -0.4373   -0.0232 C   0  0  0  0  0  0  0  0  0  0  0  0
   -1.1944    0.3272    0.2106 C   0  0  0  0  0  0  0  0  0  0  0  0
   -2.4312   -0.5717    0.1052 C   0  0  0  0  0  0  0  0  0  0  0  0
   -3.7110    0.2428    0.2363 C   0  0  0  0  0  0  0  0  0  0  0  0
   -2.4301   -1.5419    1.1480 O   0  0  0  0  0  0  0  0  0  0  0  0
    3.9064    1.1825    0.7698 H   0  0  0  0  0  0  0  0  0  0  0  0
    4.7472    0.1124   -0.3650 H   0  0  0  0  0  0  0  0  0  0  0  0
    3.7467    1.4399   -0.9789 H   0  0  0  0  0  0  0  0  0  0  0  0
    2.5899   -0.7690   -1.1933 H   0  0  0  0  0  0  0  0  0  0  0  0
    2.7489   -1.0249    0.5457 H   0  0  0  0  0  0  0  0  0  0  0  0
    1.2016    1.2758   -0.7654 H   0  0  0  0  0  0  0  0  0  0  0  0
    1.3594    1.0194    0.9737 H   0  0  0  0  0  0  0  0  0  0  0  0
    0.2399   -1.2077    0.7460 H   0  0  0  0  0  0  0  0  0  0  0  0
    0.0706   -0.9487   -0.9924 H   0  0  0  0  0  0  0  0  0  0  0  0
   -1.1571    0.7844    1.2075 H   0  0  0  0  0  0  0  0  0  0  0  0
   -1.2725    1.1396   -0.5223 H   0  0  0  0  0  0  0  0  0  0  0  0
   -2.4416   -1.1010   -0.8544 H   0  0  0  0  0  0  0  0  0  0  0  0
   -4.5875   -0.4120    0.1801 H   0  0  0  0  0  0  0  0  0  0  0  0
   -3.7580    0.7473    1.2078 H   0  0  0  0  0  0  0  0  0  0  0  0
   -3.7875    0.9952   -0.5544 H   0  0  0  0  0  0  0  0  0  0  0  0
   -1.7204   -2.1785    0.9600 H   0  0  0  0  0  0  0  0  0  0  0  0
  1  2  1  0
  2  3  1  0
  3  4  1  0
  4  5  1  0
  5  6  1  0
  6  7  1  0
  6  8  1  0
  1  9  1  0
  1 10  1  0
  1 11  1  0
  2 12  1  0
  2 13  1  0
  3 14  1  0
  3 15  1  0
  4 16  1  0
  4 17  1  0
  5 18  1  0
  5 19  1  0
  6 20  1  0
  7 21  1  0
  7 22  1  0
  7 23  1  0
  8 24  1  0
M  END
>  <Energy>  (3) 
0.773492630446999

>  <Real charge>  (3) 
0

>  <Mult>  (3) 
1

$$$$
mol_46 335
     RDKit          3D

 24 23  0  0  0  0  0  0  0  0999 V2000
    3.7788    0.2947    0.4793 C   0  0  0  0  0  0  0  0  0  0  0  0
    2.4423   -0.4110    0.6446 C   0  0  0  0  0  0  0  0  0  0  0  0
    1.3290    0.3137   -0.1117 C   0  0  0  0  0  0  0  0  0  0  0  0
   -0.0143   -0.4000    0.0567 C   0  0  0  0  0  0  0  0  0  0  0  0
   -1.1269    0.3289   -0.6977 C   0  0  0  0  0  0  0  0  0  0  0  0
   -2.4743   -0.4001   -0.6558 C   0  0  0  0  0  0  0  0  0  0  0  0
   -3.0625   -0.5042    0.7441 C   0  0  0  0  0  0  0  0  0  0  0  0
   -3.4083    0.3211   -1.4596 O   0  0  0  0  0  0  0  0  0  0  0  0
    3.7324    1.3181    0.8651 H   0  0  0  0  0  0  0  0  0  0  0  0
    4.5602   -0.2401    1.0280 H   0  0  0  0  0  0  0  0  0  0  0  0
    4.0722    0.3374   -0.5745 H   0  0  0  0  0  0  0  0  0  0  0  0
    2.1941   -0.4654    1.7109 H   0  0  0  0  0  0  0  0  0  0  0  0
    2.5317   -1.4406    0.2792 H   0  0  0  0  0  0  0  0  0  0  0  0
    1.2459    1.3441    0.2550 H   0  0  0  0  0  0  0  0  0  0  0  0
    1.5851    0.3692   -1.1768 H   0  0  0  0  0  0  0  0  0  0  0  0
    0.0680   -1.4288   -0.3140 H   0  0  0  0  0  0  0  0  0  0  0  0
   -0.2580   -0.4561    1.1235 H   0  0  0  0  0  0  0  0  0  0  0  0
   -0.8313    0.4593   -1.7471 H   0  0  0  0  0  0  0  0  0  0  0  0
   -1.2463    1.3454   -0.3006 H   0  0  0  0  0  0  0  0  0  0  0  0
   -2.3766   -1.4039   -1.0842 H   0  0  0  0  0  0  0  0  0  0  0  0
   -4.0690   -0.9353    0.7029 H   0  0  0  0  0  0  0  0  0  0  0  0
   -3.1650    0.4865    1.2005 H   0  0  0  0  0  0  0  0  0  0  0  0
   -2.4502   -1.1310    1.3980 H   0  0  0  0  0  0  0  0  0  0  0  0
   -3.0568    0.3470   -2.3659 H   0  0  0  0  0  0  0  0  0  0  0  0
  1  2  1  0
  2  3  1  0
  3  4  1  0
  4  5  1  0
  5  6  1  0
  6  7  1  0
  6  8  1  0
  1  9  1  0
  1 10  1  0
  1 11  1  0
  2 12  1  0
  2 13  1  0
  3 14  1  0
  3 15  1  0
  4 16  1  0
  4 17  1  0
  5 18  1  0
  5 19  1  0
  6 20  1  0
  7 21  1  0
  7 22  1  0
  7 23  1  0
  8 24  1  0
M  END
>  <Energy>  (4) 
0.8810462077676467

>  <Real charge>  (4) 
0

>  <Mult>  (4) 
1

$$$$
mol_46 225
     RDKit          3D

 24 23  0  0  0  0  0  0  0  0999 V2000
    3.8371    0.4816    0.1380 C   0  0  0  0  0  0  0  0  0  0  0  0
    2.4498    0.7344   -0.4305 C   0  0  0  0  0  0  0  0  0  0  0  0
    1.4061   -0.1782    0.2132 C   0  0  0  0  0  0  0  0  0  0  0  0
    0.0113    0.0788   -0.3620 C   0  0  0  0  0  0  0  0  0  0  0  0
   -1.0314   -0.8329    0.2860 C   0  0  0  0  0  0  0  0  0  0  0  0
   -2.4285   -0.6980   -0.3267 C   0  0  0  0  0  0  0  0  0  0  0  0
   -3.0529    0.6744   -0.1126 C   0  0  0  0  0  0  0  0  0  0  0  0
   -3.2643   -1.6782    0.2894 O   0  0  0  0  0  0  0  0  0  0  0  0
    4.1513   -0.5519   -0.0391 H   0  0  0  0  0  0  0  0  0  0  0  0
    4.5675    1.1447   -0.3361 H   0  0  0  0  0  0  0  0  0  0  0  0
    3.8590    0.6678    1.2165 H   0  0  0  0  0  0  0  0  0  0  0  0
    2.1795    1.7839   -0.2656 H   0  0  0  0  0  0  0  0  0  0  0  0
    2.4700    0.5708   -1.5142 H   0  0  0  0  0  0  0  0  0  0  0  0
    1.6842   -1.2264    0.0491 H   0  0  0  0  0  0  0  0  0  0  0  0
    1.3922   -0.0134    1.2975 H   0  0  0  0  0  0  0  0  0  0  0  0
   -0.2547    1.1292   -0.1990 H   0  0  0  0  0  0  0  0  0  0  0  0
    0.0247   -0.0902   -1.4454 H   0  0  0  0  0  0  0  0  0  0  0  0
   -1.0817   -0.6371    1.3651 H   0  0  0  0  0  0  0  0  0  0  0  0
   -0.7104   -1.8791    0.1948 H   0  0  0  0  0  0  0  0  0  0  0  0
   -2.3876   -0.9258   -1.3977 H   0  0  0  0  0  0  0  0  0  0  0  0
   -2.4961    1.4604   -0.6299 H   0  0  0  0  0  0  0  0  0  0  0  0
   -3.1013    0.9197    0.9539 H   0  0  0  0  0  0  0  0  0  0  0  0
   -4.0836    0.6879   -0.4838 H   0  0  0  0  0  0  0  0  0  0  0  0
   -4.1401   -1.6222   -0.1294 H   0  0  0  0  0  0  0  0  0  0  0  0
  1  2  1  0
  2  3  1  0
  3  4  1  0
  4  5  1  0
  5  6  1  0
  6  7  1  0
  6  8  1  0
  1  9  1  0
  1 10  1  0
  1 11  1  0
  2 12  1  0
  2 13  1  0
  3 14  1  0
  3 15  1  0
  4 16  1  0
  4 17  1  0
  5 18  1  0
  5 19  1  0
  6 20  1  0
  7 21  1  0
  7 22  1  0
  7 23  1  0
  8 24  1  0
M  END
>  <Energy>  (5) 
0.8974662116850204

>  <Real charge>  (5) 
0

>  <Mult>  (5) 
1

$$$$
mol_46 443
     RDKit          3D

 24 23  0  0  0  0  0  0  0  0999 V2000
   -3.7320   -0.0873    0.6857 C   0  0  0  0  0  0  0  0  0  0  0  0
   -2.4605    0.3159   -0.0439 C   0  0  0  0  0  0  0  0  0  0  0  0
   -1.2276   -0.3446    0.5727 C   0  0  0  0  0  0  0  0  0  0  0  0
    0.0503    0.0636   -0.1648 C   0  0  0  0  0  0  0  0  0  0  0  0
    1.2845   -0.5970    0.4602 C   0  0  0  0  0  0  0  0  0  0  0  0
    2.5996   -0.2928   -0.2683 C   0  0  0  0  0  0  0  0  0  0  0  0
    2.9666    1.1840   -0.2654 C   0  0  0  0  0  0  0  0  0  0  0  0
    2.5286   -0.7325   -1.6214 O   0  0  0  0  0  0  0  0  0  0  0  0
   -3.6918    0.2111    1.7382 H   0  0  0  0  0  0  0  0  0  0  0  0
   -3.8833   -1.1706    0.6409 H   0  0  0  0  0  0  0  0  0  0  0  0
   -4.6009    0.3962    0.2285 H   0  0  0  0  0  0  0  0  0  0  0  0
   -2.3560    1.4065   -0.0081 H   0  0  0  0  0  0  0  0  0  0  0  0
   -2.5463    0.0325   -1.0993 H   0  0  0  0  0  0  0  0  0  0  0  0
   -1.3397   -1.4352    0.5382 H   0  0  0  0  0  0  0  0  0  0  0  0
   -1.1485   -0.0610    1.6293 H   0  0  0  0  0  0  0  0  0  0  0  0
    0.1509    1.1541   -0.1284 H   0  0  0  0  0  0  0  0  0  0  0  0
   -0.0326   -0.2214   -1.2201 H   0  0  0  0  0  0  0  0  0  0  0  0
    1.1307   -1.6838    0.4530 H   0  0  0  0  0  0  0  0  0  0  0  0
    1.3723   -0.2920    1.5101 H   0  0  0  0  0  0  0  0  0  0  0  0
    3.4079   -0.8530    0.2160 H   0  0  0  0  0  0  0  0  0  0  0  0
    3.9537    1.3263   -0.7193 H   0  0  0  0  0  0  0  0  0  0  0  0
    2.9927    1.5869    0.7514 H   0  0  0  0  0  0  0  0  0  0  0  0
    2.2677    1.7749   -0.8663 H   0  0  0  0  0  0  0  0  0  0  0  0
    2.3137   -1.6808   -1.6106 H   0  0  0  0  0  0  0  0  0  0  0  0
  1  2  1  0
  2  3  1  0
  3  4  1  0
  4  5  1  0
  5  6  1  0
  6  7  1  0
  6  8  1  0
  1  9  1  0
  1 10  1  0
  1 11  1  0
  2 12  1  0
  2 13  1  0
  3 14  1  0
  3 15  1  0
  4 16  1  0
  4 17  1  0
  5 18  1  0
  5 19  1  0
  6 20  1  0
  7 21  1  0
  7 22  1  0
  7 23  1  0
  8 24  1  0
M  END
>  <Energy>  (6) 
1.107658900452003

>  <Real charge>  (6) 
0

>  <Mult>  (6) 
1

$$$$
mol_46 45
     RDKit          3D

 24 23  0  0  0  0  0  0  0  0999 V2000
   -3.8299    0.0869   -0.0721 C   0  0  0  0  0  0  0  0  0  0  0  0
   -2.4528   -0.3480   -0.5476 C   0  0  0  0  0  0  0  0  0  0  0  0
   -1.3432    0.4012    0.1900 C   0  0  0  0  0  0  0  0  0  0  0  0
    0.0416   -0.0392   -0.2917 C   0  0  0  0  0  0  0  0  0  0  0  0
    1.1512    0.7107    0.4548 C   0  0  0  0  0  0  0  0  0  0  0  0
    2.5697    0.3789   -0.0228 C   0  0  0  0  0  0  0  0  0  0  0  0
    2.9439   -1.0860    0.1573 C   0  0  0  0  0  0  0  0  0  0  0  0
    2.6967    0.7329   -1.3970 O   0  0  0  0  0  0  0  0  0  0  0  0
   -4.6080   -0.4612   -0.6125 H   0  0  0  0  0  0  0  0  0  0  0  0
   -3.9851    1.1565   -0.2454 H   0  0  0  0  0  0  0  0  0  0  0  0
   -3.9559   -0.1101    0.9973 H   0  0  0  0  0  0  0  0  0  0  0  0
   -2.3422   -1.4271   -0.3899 H   0  0  0  0  0  0  0  0  0  0  0  0
   -2.3711   -0.1674   -1.6257 H   0  0  0  0  0  0  0  0  0  0  0  0
   -1.4317    0.2204    1.2682 H   0  0  0  0  0  0  0  0  0  0  0  0
   -1.4615    1.4802    0.0323 H   0  0  0  0  0  0  0  0  0  0  0  0
    0.1261    0.1428   -1.3695 H   0  0  0  0  0  0  0  0  0  0  0  0
    0.1480   -1.1183   -0.1339 H   0  0  0  0  0  0  0  0  0  0  0  0
    0.9868    1.7875    0.3189 H   0  0  0  0  0  0  0  0  0  0  0  0
    1.0728    0.5054    1.5293 H   0  0  0  0  0  0  0  0  0  0  0  0
    3.2758    0.9991    0.5414 H   0  0  0  0  0  0  0  0  0  0  0  0
    2.3657   -1.7343   -0.5090 H   0  0  0  0  0  0  0  0  0  0  0  0
    2.7956   -1.4114    1.1913 H   0  0  0  0  0  0  0  0  0  0  0  0
    3.9964   -1.2406   -0.1051 H   0  0  0  0  0  0  0  0  0  0  0  0
    3.6112    0.5414   -1.6665 H   0  0  0  0  0  0  0  0  0  0  0  0
  1  2  1  0
  2  3  1  0
  3  4  1  0
  4  5  1  0
  5  6  1  0
  6  7  1  0
  6  8  1  0
  1  9  1  0
  1 10  1  0
  1 11  1  0
  2 12  1  0
  2 13  1  0
  3 14  1  0
  3 15  1  0
  4 16  1  0
  4 17  1  0
  5 18  1  0
  5 19  1  0
  6 20  1  0
  7 21  1  0
  7 22  1  0
  7 23  1  0
  8 24  1  0
M  END
>  <Energy>  (7) 
1.1790584209528416

>  <Real charge>  (7) 
0

>  <Mult>  (7) 
1

$$$$
mol_46 264
     RDKit          3D

 24 23  0  0  0  0  0  0  0  0999 V2000
   -3.5133    0.2851    0.8384 C   0  0  0  0  0  0  0  0  0  0  0  0
   -2.4930   -0.6635    0.2293 C   0  0  0  0  0  0  0  0  0  0  0  0
   -1.1593    0.0389   -0.0293 C   0  0  0  0  0  0  0  0  0  0  0  0
   -0.1363   -0.9225   -0.6380 C   0  0  0  0  0  0  0  0  0  0  0  0
    1.1801   -0.2410   -1.0333 C   0  0  0  0  0  0  0  0  0  0  0  0
    1.9702    0.3441    0.1418 C   0  0  0  0  0  0  0  0  0  0  0  0
    3.2832    0.9556   -0.3312 C   0  0  0  0  0  0  0  0  0  0  0  0
    2.2554   -0.6914    1.0772 O   0  0  0  0  0  0  0  0  0  0  0  0
   -4.4588   -0.2373    1.0142 H   0  0  0  0  0  0  0  0  0  0  0  0
   -3.1597    0.6791    1.7965 H   0  0  0  0  0  0  0  0  0  0  0  0
   -3.7109    1.1299    0.1709 H   0  0  0  0  0  0  0  0  0  0  0  0
   -2.3416   -1.5121    0.9065 H   0  0  0  0  0  0  0  0  0  0  0  0
   -2.8916   -1.0644   -0.7099 H   0  0  0  0  0  0  0  0  0  0  0  0
   -0.7794    0.4428    0.9158 H   0  0  0  0  0  0  0  0  0  0  0  0
   -1.3163    0.8869   -0.7067 H   0  0  0  0  0  0  0  0  0  0  0  0
    0.0619   -1.7440    0.0607 H   0  0  0  0  0  0  0  0  0  0  0  0
   -0.5657   -1.3775   -1.5395 H   0  0  0  0  0  0  0  0  0  0  0  0
    0.9750    0.5459   -1.7693 H   0  0  0  0  0  0  0  0  0  0  0  0
    1.7974   -0.9969   -1.5360 H   0  0  0  0  0  0  0  0  0  0  0  0
    1.3819    1.1123    0.6537 H   0  0  0  0  0  0  0  0  0  0  0  0
    3.8416    1.3663    0.5170 H   0  0  0  0  0  0  0  0  0  0  0  0
    3.9258    0.1976   -0.7922 H   0  0  0  0  0  0  0  0  0  0  0  0
    3.1104    1.7584   -1.0543 H   0  0  0  0  0  0  0  0  0  0  0  0
    2.7431   -0.2922    1.8177 H   0  0  0  0  0  0  0  0  0  0  0  0
  1  2  1  0
  2  3  1  0
  3  4  1  0
  4  5  1  0
  5  6  1  0
  6  7  1  0
  6  8  1  0
  1  9  1  0
  1 10  1  0
  1 11  1  0
  2 12  1  0
  2 13  1  0
  3 14  1  0
  3 15  1  0
  4 16  1  0
  4 17  1  0
  5 18  1  0
  5 19  1  0
  6 20  1  0
  7 21  1  0
  7 22  1  0
  7 23  1  0
  8 24  1  0
M  END
>  <Energy>  (8) 
1.1933081506018421

>  <Real charge>  (8) 
0

>  <Mult>  (8) 
1

$$$$
mol_46 437
     RDKit          3D

 24 23  0  0  0  0  0  0  0  0999 V2000
    3.3181    0.6604    0.5686 C   0  0  0  0  0  0  0  0  0  0  0  0
    2.7990   -0.5908   -0.1226 C   0  0  0  0  0  0  0  0  0  0  0  0
    1.4230   -0.4072   -0.7665 C   0  0  0  0  0  0  0  0  0  0  0  0
    0.3069   -0.1523    0.2497 C   0  0  0  0  0  0  0  0  0  0  0  0
   -1.0619   -0.0817   -0.4381 C   0  0  0  0  0  0  0  0  0  0  0  0
   -2.1915    0.2123    0.5535 C   0  0  0  0  0  0  0  0  0  0  0  0
   -3.5294    0.3505   -0.1605 C   0  0  0  0  0  0  0  0  0  0  0  0
   -2.2794   -0.8557    1.4924 O   0  0  0  0  0  0  0  0  0  0  0  0
    4.3412    0.4967    0.9222 H   0  0  0  0  0  0  0  0  0  0  0  0
    2.7065    0.9225    1.4368 H   0  0  0  0  0  0  0  0  0  0  0  0
    3.3296    1.5129   -0.1179 H   0  0  0  0  0  0  0  0  0  0  0  0
    3.5123   -0.8776   -0.9046 H   0  0  0  0  0  0  0  0  0  0  0  0
    2.7676   -1.4181    0.5959 H   0  0  0  0  0  0  0  0  0  0  0  0
    1.4623    0.4178   -1.4882 H   0  0  0  0  0  0  0  0  0  0  0  0
    1.1882   -1.3146   -1.3366 H   0  0  0  0  0  0  0  0  0  0  0  0
    0.3074   -0.9524    0.9992 H   0  0  0  0  0  0  0  0  0  0  0  0
    0.4895    0.7899    0.7784 H   0  0  0  0  0  0  0  0  0  0  0  0
   -1.0404    0.6953   -1.2117 H   0  0  0  0  0  0  0  0  0  0  0  0
   -1.2522   -1.0405   -0.9370 H   0  0  0  0  0  0  0  0  0  0  0  0
   -1.9728    1.1328    1.1066 H   0  0  0  0  0  0  0  0  0  0  0  0
   -4.3293    0.5517    0.5602 H   0  0  0  0  0  0  0  0  0  0  0  0
   -3.7969   -0.5789   -0.6753 H   0  0  0  0  0  0  0  0  0  0  0  0
   -3.5083    1.1643   -0.8916 H   0  0  0  0  0  0  0  0  0  0  0  0
   -2.9894   -0.6372    2.1199 H   0  0  0  0  0  0  0  0  0  0  0  0
  1  2  1  0
  2  3  1  0
  3  4  1  0
  4  5  1  0
  5  6  1  0
  6  7  1  0
  6  8  1  0
  1  9  1  0
  1 10  1  0
  1 11  1  0
  2 12  1  0
  2 13  1  0
  3 14  1  0
  3 15  1  0
  4 16  1  0
  4 17  1  0
  5 18  1  0
  5 19  1  0
  6 20  1  0
  7 21  1  0
  7 22  1  0
  7 23  1  0
  8 24  1  0
M  END
>  <Energy>  (9) 
1.236069099406399

>  <Real charge>  (9) 
0

>  <Mult>  (9) 
1

$$$$
mol_46 229
     RDKit          3D

 24 23  0  0  0  0  0  0  0  0999 V2000
    3.2565    0.8529    0.5747 C   0  0  0  0  0  0  0  0  0  0  0  0
    2.7881   -0.5918    0.4939 C   0  0  0  0  0  0  0  0  0  0  0  0
    1.4853   -0.7693   -0.2888 C   0  0  0  0  0  0  0  0  0  0  0  0
    0.2781   -0.1124    0.3854 C   0  0  0  0  0  0  0  0  0  0  0  0
   -1.0154   -0.4121   -0.3820 C   0  0  0  0  0  0  0  0  0  0  0  0
   -2.2431    0.2081    0.2916 C   0  0  0  0  0  0  0  0  0  0  0  0
   -3.5229   -0.1657   -0.4441 C   0  0  0  0  0  0  0  0  0  0  0  0
   -2.1104    1.6267    0.2913 O   0  0  0  0  0  0  0  0  0  0  0  0
    4.2374    0.9028    1.0582 H   0  0  0  0  0  0  0  0  0  0  0  0
    3.3483    1.2929   -0.4233 H   0  0  0  0  0  0  0  0  0  0  0  0
    2.5672    1.4662    1.1622 H   0  0  0  0  0  0  0  0  0  0  0  0
    3.5703   -1.1840    0.0040 H   0  0  0  0  0  0  0  0  0  0  0  0
    2.6732   -0.9953    1.5067 H   0  0  0  0  0  0  0  0  0  0  0  0
    1.2950   -1.8444   -0.3963 H   0  0  0  0  0  0  0  0  0  0  0  0
    1.6074   -0.3674   -1.3021 H   0  0  0  0  0  0  0  0  0  0  0  0
    0.4271    0.9714    0.4400 H   0  0  0  0  0  0  0  0  0  0  0  0
    0.1864   -0.4815    1.4140 H   0  0  0  0  0  0  0  0  0  0  0  0
   -0.9161   -0.0166   -1.4009 H   0  0  0  0  0  0  0  0  0  0  0  0
   -1.1492   -1.4978   -0.4601 H   0  0  0  0  0  0  0  0  0  0  0  0
   -2.3063   -0.1262    1.3333 H   0  0  0  0  0  0  0  0  0  0  0  0
   -4.3917    0.2911    0.0421 H   0  0  0  0  0  0  0  0  0  0  0  0
   -3.5067    0.2080   -1.4738 H   0  0  0  0  0  0  0  0  0  0  0  0
   -3.6676   -1.2501   -0.4654 H   0  0  0  0  0  0  0  0  0  0  0  0
   -2.8910    1.9946    0.7394 H   0  0  0  0  0  0  0  0  0  0  0  0
  1  2  1  0
  2  3  1  0
  3  4  1  0
  4  5  1  0
  5  6  1  0
  6  7  1  0
  6  8  1  0
  1  9  1  0
  1 10  1  0
  1 11  1  0
  2 12  1  0
  2 13  1  0
  3 14  1  0
  3 15  1  0
  4 16  1  0
  4 17  1  0
  5 18  1  0
  5 19  1  0
  6 20  1  0
  7 21  1  0
  7 22  1  0
  7 23  1  0
  8 24  1  0
M  END
>  <Energy>  (10) 
1.2439536845066854

>  <Real charge>  (10) 
0

>  <Mult>  (10) 
1

$$$$
mol_46 74
     RDKit          3D

 24 23  0  0  0  0  0  0  0  0999 V2000
    3.6557    0.2687    0.5918 C   0  0  0  0  0  0  0  0  0  0  0  0
    2.2051   -0.1891    0.5797 C   0  0  0  0  0  0  0  0  0  0  0  0
    1.5164    0.1766   -0.7357 C   0  0  0  0  0  0  0  0  0  0  0  0
    0.0868   -0.3625   -0.8449 C   0  0  0  0  0  0  0  0  0  0  0  0
   -0.8779    0.2639    0.1690 C   0  0  0  0  0  0  0  0  0  0  0  0
   -2.3257   -0.1794   -0.0662 C   0  0  0  0  0  0  0  0  0  0  0  0
   -3.2763    0.5025    0.9088 C   0  0  0  0  0  0  0  0  0  0  0  0
   -2.4172   -1.5901    0.1121 O   0  0  0  0  0  0  0  0  0  0  0  0
    4.2236   -0.2046   -0.2156 H   0  0  0  0  0  0  0  0  0  0  0  0
    4.1294    0.0015    1.5416 H   0  0  0  0  0  0  0  0  0  0  0  0
    3.7251    1.3545    0.4708 H   0  0  0  0  0  0  0  0  0  0  0  0
    2.1696   -1.2742    0.7304 H   0  0  0  0  0  0  0  0  0  0  0  0
    1.6850    0.2754    1.4242 H   0  0  0  0  0  0  0  0  0  0  0  0
    2.0996   -0.2316   -1.5706 H   0  0  0  0  0  0  0  0  0  0  0  0
    1.5091    1.2663   -0.8599 H   0  0  0  0  0  0  0  0  0  0  0  0
   -0.2781   -0.1567   -1.8588 H   0  0  0  0  0  0  0  0  0  0  0  0
    0.0993   -1.4528   -0.7288 H   0  0  0  0  0  0  0  0  0  0  0  0
   -0.8141    1.3568    0.1066 H   0  0  0  0  0  0  0  0  0  0  0  0
   -0.5738   -0.0305    1.1804 H   0  0  0  0  0  0  0  0  0  0  0  0
   -2.6253    0.0525   -1.0944 H   0  0  0  0  0  0  0  0  0  0  0  0
   -3.0318    0.2393    1.9438 H   0  0  0  0  0  0  0  0  0  0  0  0
   -4.3057    0.1709    0.7353 H   0  0  0  0  0  0  0  0  0  0  0  0
   -3.2401    1.5911    0.8044 H   0  0  0  0  0  0  0  0  0  0  0  0
   -3.3389   -1.8484   -0.0594 H   0  0  0  0  0  0  0  0  0  0  0  0
  1  2  1  0
  2  3  1  0
  3  4  1  0
  4  5  1  0
  5  6  1  0
  6  7  1  0
  6  8  1  0
  1  9  1  0
  1 10  1  0
  1 11  1  0
  2 12  1  0
  2 13  1  0
  3 14  1  0
  3 15  1  0
  4 16  1  0
  4 17  1  0
  5 18  1  0
  5 19  1  0
  6 20  1  0
  7 21  1  0
  7 22  1  0
  7 23  1  0
  8 24  1  0
M  END
>  <Energy>  (11) 
1.2711130515993725

>  <Real charge>  (11) 
0

>  <Mult>  (11) 
1

$$$$
mol_46 46
     RDKit          3D

 24 23  0  0  0  0  0  0  0  0999 V2000
    3.3068   -0.5711   -0.7530 C   0  0  0  0  0  0  0  0  0  0  0  0
    2.7357   -0.1486    0.5917 C   0  0  0  0  0  0  0  0  0  0  0  0
    1.4147    0.6158    0.4818 C   0  0  0  0  0  0  0  0  0  0  0  0
    0.2661   -0.2339   -0.0677 C   0  0  0  0  0  0  0  0  0  0  0  0
   -1.0536    0.5465   -0.0571 C   0  0  0  0  0  0  0  0  0  0  0  0
   -2.2110   -0.2701   -0.6411 C   0  0  0  0  0  0  0  0  0  0  0  0
   -3.5007    0.5386   -0.6811 C   0  0  0  0  0  0  0  0  0  0  0  0
   -2.4295   -1.4404    0.1420 O   0  0  0  0  0  0  0  0  0  0  0  0
    2.6692   -1.3112   -1.2453 H   0  0  0  0  0  0  0  0  0  0  0  0
    3.4190    0.2891   -1.4204 H   0  0  0  0  0  0  0  0  0  0  0  0
    4.2939   -1.0242   -0.6158 H   0  0  0  0  0  0  0  0  0  0  0  0
    2.6037   -1.0328    1.2261 H   0  0  0  0  0  0  0  0  0  0  0  0
    3.4679    0.4949    1.0939 H   0  0  0  0  0  0  0  0  0  0  0  0
    1.5544    1.5020   -0.1492 H   0  0  0  0  0  0  0  0  0  0  0  0
    1.1454    0.9791    1.4813 H   0  0  0  0  0  0  0  0  0  0  0  0
    0.4882   -0.5454   -1.0945 H   0  0  0  0  0  0  0  0  0  0  0  0
    0.1660   -1.1441    0.5351 H   0  0  0  0  0  0  0  0  0  0  0  0
   -0.9336    1.4741   -0.6299 H   0  0  0  0  0  0  0  0  0  0  0  0
   -1.2863    0.8262    0.9783 H   0  0  0  0  0  0  0  0  0  0  0  0
   -1.9615   -0.5971   -1.6565 H   0  0  0  0  0  0  0  0  0  0  0  0
   -3.8024    0.8486    0.3255 H   0  0  0  0  0  0  0  0  0  0  0  0
   -3.3911    1.4312   -1.3044 H   0  0  0  0  0  0  0  0  0  0  0  0
   -4.3193   -0.0690   -1.0815 H   0  0  0  0  0  0  0  0  0  0  0  0
   -2.6419   -1.1580    1.0481 H   0  0  0  0  0  0  0  0  0  0  0  0
  1  2  1  0
  2  3  1  0
  3  4  1  0
  4  5  1  0
  5  6  1  0
  6  7  1  0
  6  8  1  0
  1  9  1  0
  1 10  1  0
  1 11  1  0
  2 12  1  0
  2 13  1  0
  3 14  1  0
  3 15  1  0
  4 16  1  0
  4 17  1  0
  5 18  1  0
  5 19  1  0
  6 20  1  0
  7 21  1  0
  7 22  1  0
  7 23  1  0
  8 24  1  0
M  END
>  <Energy>  (12) 
1.3335168593623634

>  <Real charge>  (12) 
0

>  <Mult>  (12) 
1

$$$$
mol_46 396
     RDKit          3D

 24 23  0  0  0  0  0  0  0  0999 V2000
    3.3012    0.3949    0.5690 C   0  0  0  0  0  0  0  0  0  0  0  0
    2.7535   -0.5551   -0.4848 C   0  0  0  0  0  0  0  0  0  0  0  0
    1.3209   -1.0157   -0.2075 C   0  0  0  0  0  0  0  0  0  0  0  0
    0.2945    0.1177   -0.2802 C   0  0  0  0  0  0  0  0  0  0  0  0
   -1.1320   -0.4153   -0.1020 C   0  0  0  0  0  0  0  0  0  0  0  0
   -2.1804    0.6974   -0.2045 C   0  0  0  0  0  0  0  0  0  0  0  0
   -3.5945    0.1445   -0.0903 C   0  0  0  0  0  0  0  0  0  0  0  0
   -1.9802    1.6568    0.8300 O   0  0  0  0  0  0  0  0  0  0  0  0
    4.3560    0.6091    0.3691 H   0  0  0  0  0  0  0  0  0  0  0  0
    3.2284   -0.0433    1.5694 H   0  0  0  0  0  0  0  0  0  0  0  0
    2.7647    1.3481    0.5680 H   0  0  0  0  0  0  0  0  0  0  0  0
    2.8082   -0.0778   -1.4701 H   0  0  0  0  0  0  0  0  0  0  0  0
    3.4004   -1.4397   -0.5253 H   0  0  0  0  0  0  0  0  0  0  0  0
    1.0598   -1.7838   -0.9461 H   0  0  0  0  0  0  0  0  0  0  0  0
    1.2731   -1.4957    0.7775 H   0  0  0  0  0  0  0  0  0  0  0  0
    0.3765    0.6257   -1.2486 H   0  0  0  0  0  0  0  0  0  0  0  0
    0.5056    0.8605    0.4967 H   0  0  0  0  0  0  0  0  0  0  0  0
   -1.2036   -0.9000    0.8800 H   0  0  0  0  0  0  0  0  0  0  0  0
   -1.3342   -1.1796   -0.8621 H   0  0  0  0  0  0  0  0  0  0  0  0
   -2.0763    1.2206   -1.1613 H   0  0  0  0  0  0  0  0  0  0  0  0
   -3.7465   -0.3520    0.8745 H   0  0  0  0  0  0  0  0  0  0  0  0
   -4.3271    0.9570   -0.1445 H   0  0  0  0  0  0  0  0  0  0  0  0
   -3.8073   -0.5714   -0.8900 H   0  0  0  0  0  0  0  0  0  0  0  0
   -2.0608    1.1972    1.6832 H   0  0  0  0  0  0  0  0  0  0  0  0
  1  2  1  0
  2  3  1  0
  3  4  1  0
  4  5  1  0
  5  6  1  0
  6  7  1  0
  6  8  1  0
  1  9  1  0
  1 10  1  0
  1 11  1  0
  2 12  1  0
  2 13  1  0
  3 14  1  0
  3 15  1  0
  4 16  1  0
  4 17  1  0
  5 18  1  0
  5 19  1  0
  6 20  1  0
  7 21  1  0
  7 22  1  0
  7 23  1  0
  8 24  1  0
M  END
>  <Energy>  (13) 
1.339823093281739

>  <Real charge>  (13) 
0

>  <Mult>  (13) 
1

$$$$
mol_46 453
     RDKit          3D

 24 23  0  0  0  0  0  0  0  0999 V2000
    3.6489    0.3866    0.3534 C   0  0  0  0  0  0  0  0  0  0  0  0
    2.1477    0.2370    0.5488 C   0  0  0  0  0  0  0  0  0  0  0  0
    1.5503   -0.7470   -0.4578 C   0  0  0  0  0  0  0  0  0  0  0  0
    0.0611   -1.0245   -0.2300 C   0  0  0  0  0  0  0  0  0  0  0  0
   -0.8308    0.1981   -0.4774 C   0  0  0  0  0  0  0  0  0  0  0  0
   -2.3185   -0.1341   -0.3194 C   0  0  0  0  0  0  0  0  0  0  0  0
   -3.1812    1.1104   -0.4825 C   0  0  0  0  0  0  0  0  0  0  0  0
   -2.6943   -1.0856   -1.3112 O   0  0  0  0  0  0  0  0  0  0  0  0
    4.0566    1.0968    1.0796 H   0  0  0  0  0  0  0  0  0  0  0  0
    3.8785    0.7575   -0.6507 H   0  0  0  0  0  0  0  0  0  0  0  0
    4.1604   -0.5713    0.4917 H   0  0  0  0  0  0  0  0  0  0  0  0
    1.6820    1.2223    0.4418 H   0  0  0  0  0  0  0  0  0  0  0  0
    1.9512   -0.1087    1.5702 H   0  0  0  0  0  0  0  0  0  0  0  0
    1.7033   -0.3734   -1.4776 H   0  0  0  0  0  0  0  0  0  0  0  0
    2.0890   -1.7004   -0.3876 H   0  0  0  0  0  0  0  0  0  0  0  0
   -0.2370   -1.8359   -0.9049 H   0  0  0  0  0  0  0  0  0  0  0  0
   -0.0918   -1.3922    0.7919 H   0  0  0  0  0  0  0  0  0  0  0  0
   -0.6435    0.5682   -1.4932 H   0  0  0  0  0  0  0  0  0  0  0  0
   -0.5674    0.9984    0.2226 H   0  0  0  0  0  0  0  0  0  0  0  0
   -2.4989   -0.5807    0.6649 H   0  0  0  0  0  0  0  0  0  0  0  0
   -4.2419    0.8578   -0.3772 H   0  0  0  0  0  0  0  0  0  0  0  0
   -3.0591    1.5440   -1.4812 H   0  0  0  0  0  0  0  0  0  0  0  0
   -2.9298    1.8698    0.2641 H   0  0  0  0  0  0  0  0  0  0  0  0
   -3.6348   -1.2931   -1.1775 H   0  0  0  0  0  0  0  0  0  0  0  0
  1  2  1  0
  2  3  1  0
  3  4  1  0
  4  5  1  0
  5  6  1  0
  6  7  1  0
  6  8  1  0
  1  9  1  0
  1 10  1  0
  1 11  1  0
  2 12  1  0
  2 13  1  0
  3 14  1  0
  3 15  1  0
  4 16  1  0
  4 17  1  0
  5 18  1  0
  5 19  1  0
  6 20  1  0
  7 21  1  0
  7 22  1  0
  7 23  1  0
  8 24  1  0
M  END
>  <Energy>  (14) 
1.3526183372964868

>  <Real charge>  (14) 
0

>  <Mult>  (14) 
1

$$$$
mol_46 219
     RDKit          3D

 24 23  0  0  0  0  0  0  0  0999 V2000
    3.3940    0.6893    0.1433 C   0  0  0  0  0  0  0  0  0  0  0  0
    2.3616   -0.1685   -0.5707 C   0  0  0  0  0  0  0  0  0  0  0  0
    1.0066   -0.1194    0.1366 C   0  0  0  0  0  0  0  0  0  0  0  0
   -0.0284   -0.9811   -0.5892 C   0  0  0  0  0  0  0  0  0  0  0  0
   -1.3720   -1.0605    0.1398 C   0  0  0  0  0  0  0  0  0  0  0  0
   -2.0957    0.2735    0.3550 C   0  0  0  0  0  0  0  0  0  0  0  0
   -2.4193    1.0008   -0.9419 C   0  0  0  0  0  0  0  0  0  0  0  0
   -3.3327    0.0153    1.0216 O   0  0  0  0  0  0  0  0  0  0  0  0
    3.0791    1.7372    0.1751 H   0  0  0  0  0  0  0  0  0  0  0  0
    3.5472    0.3448    1.1710 H   0  0  0  0  0  0  0  0  0  0  0  0
    4.3548    0.6392   -0.3787 H   0  0  0  0  0  0  0  0  0  0  0  0
    2.7223   -1.2028   -0.6142 H   0  0  0  0  0  0  0  0  0  0  0  0
    2.2550    0.1820   -1.6039 H   0  0  0  0  0  0  0  0  0  0  0  0
    0.6643    0.9206    0.1815 H   0  0  0  0  0  0  0  0  0  0  0  0
    1.1185   -0.4706    1.1695 H   0  0  0  0  0  0  0  0  0  0  0  0
    0.3626   -2.0016   -0.6898 H   0  0  0  0  0  0  0  0  0  0  0  0
   -0.1752   -0.6075   -1.6091 H   0  0  0  0  0  0  0  0  0  0  0  0
   -2.0331   -1.7406   -0.4136 H   0  0  0  0  0  0  0  0  0  0  0  0
   -1.2230   -1.5425    1.1151 H   0  0  0  0  0  0  0  0  0  0  0  0
   -1.5112    0.9319    1.0058 H   0  0  0  0  0  0  0  0  0  0  0  0
   -3.0280    1.8889   -0.7389 H   0  0  0  0  0  0  0  0  0  0  0  0
   -1.5144    1.3203   -1.4661 H   0  0  0  0  0  0  0  0  0  0  0  0
   -3.0082    0.3644   -1.6115 H   0  0  0  0  0  0  0  0  0  0  0  0
   -3.1247   -0.4132    1.8694 H   0  0  0  0  0  0  0  0  0  0  0  0
  1  2  1  0
  2  3  1  0
  3  4  1  0
  4  5  1  0
  5  6  1  0
  6  7  1  0
  6  8  1  0
  1  9  1  0
  1 10  1  0
  1 11  1  0
  2 12  1  0
  2 13  1  0
  3 14  1  0
  3 15  1  0
  4 16  1  0
  4 17  1  0
  5 18  1  0
  5 19  1  0
  6 20  1  0
  7 21  1  0
  7 22  1  0
  7 23  1  0
  8 24  1  0
M  END
>  <Energy>  (15) 
1.4084124762228019

>  <Real charge>  (15) 
0

>  <Mult>  (15) 
1

$$$$
