mol_1106 92
     RDKit          3D

 18 17  0  0  0  0  0  0  0  0999 V2000
   -0.6710   -0.0630   -1.4161 C   0  0  0  0  0  0  0  0  0  0  0  0
   -0.1787   -0.0277    0.0406 C   0  0  0  0  0  0  0  0  0  0  0  0
   -0.9615   -1.0624    0.8642 C   0  0  0  0  0  0  0  0  0  0  0  0
   -0.4320    1.3752    0.6178 C   0  0  0  0  0  0  0  0  0  0  0  0
    1.3235   -0.3686    0.1051 C   0  0  0  0  0  0  0  0  0  0  0  0
    2.0916    0.5641   -0.6447 O   0  0  0  0  0  0  0  0  0  0  0  0
   -0.4922   -1.0449   -1.8685 H   0  0  0  0  0  0  0  0  0  0  0  0
   -0.1620    0.6865   -2.0320 H   0  0  0  0  0  0  0  0  0  0  0  0
   -1.7467    0.1386   -1.4739 H   0  0  0  0  0  0  0  0  0  0  0  0
   -0.6416   -1.0577    1.9123 H   0  0  0  0  0  0  0  0  0  0  0  0
   -0.8106   -2.0750    0.4735 H   0  0  0  0  0  0  0  0  0  0  0  0
   -2.0372   -0.8545    0.8436 H   0  0  0  0  0  0  0  0  0  0  0  0
   -1.5012    1.6158    0.6150 H   0  0  0  0  0  0  0  0  0  0  0  0
    0.0810    2.1491    0.0365 H   0  0  0  0  0  0  0  0  0  0  0  0
   -0.0785    1.4450    1.6526 H   0  0  0  0  0  0  0  0  0  0  0  0
    1.6818   -0.3485    1.1406 H   0  0  0  0  0  0  0  0  0  0  0  0
    1.5123   -1.3684   -0.3018 H   0  0  0  0  0  0  0  0  0  0  0  0
    3.0230    0.2964   -0.5648 H   0  0  0  0  0  0  0  0  0  0  0  0
  1  2  1  0
  2  3  1  0
  2  4  1  0
  2  5  1  0
  5  6  1  0
  1  7  1  0
  1  8  1  0
  1  9  1  0
  3 10  1  0
  3 11  1  0
  3 12  1  0
  4 13  1  0
  4 14  1  0
  4 15  1  0
  5 16  1  0
  5 17  1  0
  6 18  1  0
M  END
>  <Energy>  (1) 
12.044664890695303

>  <Real charge>  (1) 
0

>  <Mult>  (1) 
1

$$$$
mol_1106 15
     RDKit          3D

 18 17  0  0  0  0  0  0  0  0999 V2000
   -1.1208   -0.9590   -0.5295 C   0  0  0  0  0  0  0  0  0  0  0  0
   -0.1226    0.0913   -0.0145 C   0  0  0  0  0  0  0  0  0  0  0  0
    0.1062   -0.1355    1.4893 C   0  0  0  0  0  0  0  0  0  0  0  0
   -0.7123    1.4955   -0.2250 C   0  0  0  0  0  0  0  0  0  0  0  0
    1.2070   -0.0104   -0.7908 C   0  0  0  0  0  0  0  0  0  0  0  0
    1.7966   -1.2996   -0.6808 O   0  0  0  0  0  0  0  0  0  0  0  0
   -1.3026   -0.8367   -1.6032 H   0  0  0  0  0  0  0  0  0  0  0  0
   -0.7529   -1.9780   -0.3668 H   0  0  0  0  0  0  0  0  0  0  0  0
   -2.0856   -0.8713   -0.0170 H   0  0  0  0  0  0  0  0  0  0  0  0
    0.8468    0.5681    1.8855 H   0  0  0  0  0  0  0  0  0  0  0  0
    0.4622   -1.1502    1.6968 H   0  0  0  0  0  0  0  0  0  0  0  0
   -0.8221    0.0059    2.0546 H   0  0  0  0  0  0  0  0  0  0  0  0
   -1.6627    1.6112    0.3082 H   0  0  0  0  0  0  0  0  0  0  0  0
   -0.0288    2.2701    0.1406 H   0  0  0  0  0  0  0  0  0  0  0  0
   -0.9011    1.6905   -1.2867 H   0  0  0  0  0  0  0  0  0  0  0  0
    1.0430    0.1811   -1.8571 H   0  0  0  0  0  0  0  0  0  0  0  0
    1.9335    0.7291   -0.4348 H   0  0  0  0  0  0  0  0  0  0  0  0
    2.1162   -1.4019    0.2312 H   0  0  0  0  0  0  0  0  0  0  0  0
  1  2  1  0
  2  3  1  0
  2  4  1  0
  2  5  1  0
  5  6  1  0
  1  7  1  0
  1  8  1  0
  1  9  1  0
  3 10  1  0
  3 11  1  0
  3 12  1  0
  4 13  1  0
  4 14  1  0
  4 15  1  0
  5 16  1  0
  5 17  1  0
  6 18  1  0
M  END
>  <Energy>  (2) 
12.512980806916495

>  <Real charge>  (2) 
0

>  <Mult>  (2) 
1

$$$$
