mol_413 1
     RDKit          3D

 19 19  0  0  0  0  0  0  0  0999 V2000
   -4.2363   -0.7615   -0.0185 C   0  0  0  0  0  0  0  0  0  0  0  0
   -2.9564   -0.0973   -0.4616 C   0  0  0  0  0  0  0  0  0  0  0  0
   -2.9728    0.7661   -1.3308 O   0  0  0  0  0  0  0  0  0  0  0  0
   -1.8552   -0.5553    0.2232 N   0  0  0  0  0  0  0  0  0  0  0  0
   -0.5982   -0.0769   -0.0265 C   0  0  0  0  0  0  0  0  0  0  0  0
   -0.1830    0.8242   -0.8841 N   0  0  0  0  0  0  0  0  0  0  0  0
    1.1880    1.0117   -0.8095 N   0  0  0  0  0  0  0  0  0  0  0  0
    1.7232    0.2329    0.1075 C   0  0  0  0  0  0  0  0  0  0  0  0
    0.6249   -0.7755    0.9416 S   0  0  0  0  0  0  0  0  0  0  0  0
    3.4243    0.1463    0.5331 S   0  0  0  0  0  6  0  0  0  0  0  0
    4.3122    1.2202   -0.4122 N   0  0  0  0  0  0  0  0  0  0  0  0
    3.8781   -1.1742    0.1558 O   0  0  0  0  0  0  0  0  0  0  0  0
    3.5363    0.6350    1.8898 O   0  0  0  0  0  0  0  0  0  0  0  0
   -4.7868   -0.0779    0.6332 H   0  0  0  0  0  0  0  0  0  0  0  0
   -4.0450   -1.6935    0.5206 H   0  0  0  0  0  0  0  0  0  0  0  0
   -4.8404   -0.9977   -0.8991 H   0  0  0  0  0  0  0  0  0  0  0  0
   -1.9439   -1.2593    0.9400 H   0  0  0  0  0  0  0  0  0  0  0  0
    4.9835    0.7061   -0.9835 H   0  0  0  0  0  0  0  0  0  0  0  0
    4.7475    1.9267    0.1815 H   0  0  0  0  0  0  0  0  0  0  0  0
  1  2  1  0
  2  3  2  0
  2  4  1  0
  4  5  1  0
  5  6  2  0
  6  7  1  0
  7  8  2  0
  8  9  1  0
  8 10  1  0
 10 11  1  0
 10 12  2  0
 10 13  2  0
  9  5  1  0
  1 14  1  0
  1 15  1  0
  1 16  1  0
  4 17  1  0
 11 18  1  0
 11 19  1  0
M  END
>  <Energy>  (1) 
-66.04535998662158

>  <Real charge>  (1) 
0

>  <Mult>  (1) 
1

$$$$
mol_413 356
     RDKit          3D

 19 19  0  0  0  0  0  0  0  0999 V2000
   -4.2318    0.5220   -0.3247 C   0  0  0  0  0  0  0  0  0  0  0  0
   -2.7452    0.7800   -0.3488 C   0  0  0  0  0  0  0  0  0  0  0  0
   -2.3140    1.8943   -0.6203 O   0  0  0  0  0  0  0  0  0  0  0  0
   -2.0119   -0.3492   -0.0707 N   0  0  0  0  0  0  0  0  0  0  0  0
   -0.6439   -0.4509   -0.0189 C   0  0  0  0  0  0  0  0  0  0  0  0
   -0.0432   -1.5921    0.2470 N   0  0  0  0  0  0  0  0  0  0  0  0
    1.3340   -1.4674    0.2510 N   0  0  0  0  0  0  0  0  0  0  0  0
    1.6955   -0.2283   -0.0131 C   0  0  0  0  0  0  0  0  0  0  0  0
    0.4130    0.8606   -0.2813 S   0  0  0  0  0  0  0  0  0  0  0  0
    3.3417    0.3745   -0.1076 S   0  0  0  0  0  6  0  0  0  0  0  0
    4.4270   -0.8817    0.1945 N   0  0  0  0  0  0  0  0  0  0  0  0
    3.5145    1.3003    0.9896 O   0  0  0  0  0  0  0  0  0  0  0  0
    3.5722    0.7553   -1.4834 O   0  0  0  0  0  0  0  0  0  0  0  0
   -4.5762    0.3115   -1.3406 H   0  0  0  0  0  0  0  0  0  0  0  0
   -4.7445    1.4082    0.0604 H   0  0  0  0  0  0  0  0  0  0  0  0
   -4.4824   -0.3213    0.3252 H   0  0  0  0  0  0  0  0  0  0  0  0
   -2.4860   -1.2233    0.1118 H   0  0  0  0  0  0  0  0  0  0  0  0
    4.9731   -0.6618    1.0284 H   0  0  0  0  0  0  0  0  0  0  0  0
    5.0082   -1.0307   -0.6314 H   0  0  0  0  0  0  0  0  0  0  0  0
  1  2  1  0
  2  3  2  0
  2  4  1  0
  4  5  1  0
  5  6  2  0
  6  7  1  0
  7  8  2  0
  8  9  1  0
  8 10  1  0
 10 11  1  0
 10 12  2  0
 10 13  2  0
  9  5  1  0
  1 14  1  0
  1 15  1  0
  1 16  1  0
  4 17  1  0
 11 18  1  0
 11 19  1  0
M  END
>  <Energy>  (2) 
-66.02919104232178

>  <Real charge>  (2) 
0

>  <Mult>  (2) 
1

$$$$
mol_413 95
     RDKit          3D

 19 19  0  0  0  0  0  0  0  0999 V2000
   -4.1568   -0.2653   -0.3091 C   0  0  0  0  0  0  0  0  0  0  0  0
   -2.7102   -0.6521   -0.1222 C   0  0  0  0  0  0  0  0  0  0  0  0
   -2.3868   -1.8323   -0.0617 O   0  0  0  0  0  0  0  0  0  0  0  0
   -1.8843    0.4415   -0.0090 N   0  0  0  0  0  0  0  0  0  0  0  0
   -0.5236    0.4299    0.1725 C   0  0  0  0  0  0  0  0  0  0  0  0
    0.1723    1.5438    0.2814 N   0  0  0  0  0  0  0  0  0  0  0  0
    1.5218    1.3012    0.4558 N   0  0  0  0  0  0  0  0  0  0  0  0
    1.7653    0.0062    0.4666 C   0  0  0  0  0  0  0  0  0  0  0  0
    0.4064   -0.9969    0.2700 S   0  0  0  0  0  0  0  0  0  0  0  0
    3.3540   -0.7241    0.6635 S   0  0  0  0  0  6  0  0  0  0  0  0
    4.4732    0.5319    0.8344 N   0  0  0  0  0  0  0  0  0  0  0  0
    3.6521   -1.3750   -0.5917 O   0  0  0  0  0  0  0  0  0  0  0  0
    3.3190   -1.4205    1.9291 O   0  0  0  0  0  0  0  0  0  0  0  0
   -4.6423   -0.9939   -0.9647 H   0  0  0  0  0  0  0  0  0  0  0  0
   -4.6551   -0.2582    0.6638 H   0  0  0  0  0  0  0  0  0  0  0  0
   -4.2518    0.7209   -0.7725 H   0  0  0  0  0  0  0  0  0  0  0  0
   -2.2780    1.3719   -0.0471 H   0  0  0  0  0  0  0  0  0  0  0  0
    4.5202    1.1051   -0.0078 H   0  0  0  0  0  0  0  0  0  0  0  0
    4.3047    1.0659    1.6867 H   0  0  0  0  0  0  0  0  0  0  0  0
  1  2  1  0
  2  3  2  0
  2  4  1  0
  4  5  1  0
  5  6  2  0
  6  7  1  0
  7  8  2  0
  8  9  1  0
  8 10  1  0
 10 11  1  0
 10 12  2  0
 10 13  2  0
  9  5  1  0
  1 14  1  0
  1 15  1  0
  1 16  1  0
  4 17  1  0
 11 18  1  0
 11 19  1  0
M  END
>  <Energy>  (3) 
-65.09023168926677

>  <Real charge>  (3) 
0

>  <Mult>  (3) 
1

$$$$
