mol_461 24
     RDKit          3D

 18 17  0  0  0  0  0  0  0  0999 V2000
   -2.7661    0.2281   -0.4759 C   0  0  0  0  0  0  0  0  0  0  0  0
   -1.4625   -0.5529   -0.5220 C   0  0  0  0  0  0  0  0  0  0  0  0
   -0.2816    0.3006   -0.0604 C   0  0  0  0  0  0  0  0  0  0  0  0
    1.0256   -0.4873   -0.1082 C   0  0  0  0  0  0  0  0  0  0  0  0
    2.2071    0.3560    0.3501 C   0  0  0  0  0  0  0  0  0  0  0  0
    3.3875   -0.4320    0.2824 O   0  0  0  0  0  0  0  0  0  0  0  0
   -3.5970   -0.4012   -0.8099 H   0  0  0  0  0  0  0  0  0  0  0  0
   -2.9846    0.5672    0.5418 H   0  0  0  0  0  0  0  0  0  0  0  0
   -2.7210    1.1058   -1.1286 H   0  0  0  0  0  0  0  0  0  0  0  0
   -1.2902   -0.9047   -1.5458 H   0  0  0  0  0  0  0  0  0  0  0  0
   -1.5524   -1.4403    0.1154 H   0  0  0  0  0  0  0  0  0  0  0  0
   -0.1987    1.1889   -0.6985 H   0  0  0  0  0  0  0  0  0  0  0  0
   -0.4608    0.6534    0.9625 H   0  0  0  0  0  0  0  0  0  0  0  0
    1.2127   -0.8515   -1.1261 H   0  0  0  0  0  0  0  0  0  0  0  0
    0.9527   -1.3828    0.5216 H   0  0  0  0  0  0  0  0  0  0  0  0
    2.0707    0.6906    1.3834 H   0  0  0  0  0  0  0  0  0  0  0  0
    2.3355    1.2315   -0.2942 H   0  0  0  0  0  0  0  0  0  0  0  0
    4.1231    0.1303    0.5797 H   0  0  0  0  0  0  0  0  0  0  0  0
  1  2  1  0
  2  3  1  0
  3  4  1  0
  4  5  1  0
  5  6  1  0
  1  7  1  0
  1  8  1  0
  1  9  1  0
  2 10  1  0
  2 11  1  0
  3 12  1  0
  3 13  1  0
  4 14  1  0
  4 15  1  0
  5 16  1  0
  5 17  1  0
  6 18  1  0
M  END
>  <Energy>  (1) 
-2.2130253126798345

>  <Real charge>  (1) 
0

>  <Mult>  (1) 
1

$$$$
mol_461 42
     RDKit          3D

 18 17  0  0  0  0  0  0  0  0999 V2000
   -2.4885    1.0792    0.0289 C   0  0  0  0  0  0  0  0  0  0  0  0
   -1.5529   -0.1158    0.1205 C   0  0  0  0  0  0  0  0  0  0  0  0
   -0.1373    0.2451   -0.3305 C   0  0  0  0  0  0  0  0  0  0  0  0
    0.8000   -0.9625   -0.2374 C   0  0  0  0  0  0  0  0  0  0  0  0
    2.2100   -0.6359   -0.7144 C   0  0  0  0  0  0  0  0  0  0  0  0
    2.7956    0.3396    0.1356 O   0  0  0  0  0  0  0  0  0  0  0  0
   -3.4947    0.7986    0.3557 H   0  0  0  0  0  0  0  0  0  0  0  0
   -2.5556    1.4468   -1.0000 H   0  0  0  0  0  0  0  0  0  0  0  0
   -2.1409    1.8993    0.6652 H   0  0  0  0  0  0  0  0  0  0  0  0
   -1.5331   -0.4784    1.1548 H   0  0  0  0  0  0  0  0  0  0  0  0
   -1.9461   -0.9286   -0.5011 H   0  0  0  0  0  0  0  0  0  0  0  0
   -0.1635    0.6096   -1.3647 H   0  0  0  0  0  0  0  0  0  0  0  0
    0.2452    1.0637    0.2909 H   0  0  0  0  0  0  0  0  0  0  0  0
    0.4005   -1.7866   -0.8396 H   0  0  0  0  0  0  0  0  0  0  0  0
    0.8399   -1.3004    0.8053 H   0  0  0  0  0  0  0  0  0  0  0  0
    2.8326   -1.5357   -0.6850 H   0  0  0  0  0  0  0  0  0  0  0  0
    2.1979   -0.2504   -1.7390 H   0  0  0  0  0  0  0  0  0  0  0  0
    3.6908    0.5123   -0.2024 H   0  0  0  0  0  0  0  0  0  0  0  0
  1  2  1  0
  2  3  1  0
  3  4  1  0
  4  5  1  0
  5  6  1  0
  1  7  1  0
  1  8  1  0
  1  9  1  0
  2 10  1  0
  2 11  1  0
  3 12  1  0
  3 13  1  0
  4 14  1  0
  4 15  1  0
  5 16  1  0
  5 17  1  0
  6 18  1  0
M  END
>  <Energy>  (2) 
-1.8900657406565642

>  <Real charge>  (2) 
0

>  <Mult>  (2) 
1

$$$$
mol_461 101
     RDKit          3D

 18 17  0  0  0  0  0  0  0  0999 V2000
    2.5584    0.5683    0.2635 C   0  0  0  0  0  0  0  0  0  0  0  0
    1.1103    0.6184   -0.1994 C   0  0  0  0  0  0  0  0  0  0  0  0
    0.4514   -0.7591   -0.1186 C   0  0  0  0  0  0  0  0  0  0  0  0
   -0.9730   -0.7824   -0.6734 C   0  0  0  0  0  0  0  0  0  0  0  0
   -1.9577    0.0539    0.1326 C   0  0  0  0  0  0  0  0  0  0  0  0
   -3.2589   -0.1219   -0.4133 O   0  0  0  0  0  0  0  0  0  0  0  0
    3.0107    1.5631    0.2014 H   0  0  0  0  0  0  0  0  0  0  0  0
    3.1470   -0.1115   -0.3608 H   0  0  0  0  0  0  0  0  0  0  0  0
    2.6266    0.2280    1.3017 H   0  0  0  0  0  0  0  0  0  0  0  0
    1.0754    0.9886   -1.2304 H   0  0  0  0  0  0  0  0  0  0  0  0
    0.5681    1.3371    0.4244 H   0  0  0  0  0  0  0  0  0  0  0  0
    0.4465   -1.1073    0.9215 H   0  0  0  0  0  0  0  0  0  0  0  0
    1.0529   -1.4781   -0.6888 H   0  0  0  0  0  0  0  0  0  0  0  0
   -0.9776   -0.4481   -1.7185 H   0  0  0  0  0  0  0  0  0  0  0  0
   -1.3277   -1.8208   -0.6975 H   0  0  0  0  0  0  0  0  0  0  0  0
   -1.9748   -0.2641    1.1797 H   0  0  0  0  0  0  0  0  0  0  0  0
   -1.7106    1.1182    0.0851 H   0  0  0  0  0  0  0  0  0  0  0  0
   -3.8670    0.4178    0.1201 H   0  0  0  0  0  0  0  0  0  0  0  0
  1  2  1  0
  2  3  1  0
  3  4  1  0
  4  5  1  0
  5  6  1  0
  1  7  1  0
  1  8  1  0
  1  9  1  0
  2 10  1  0
  2 11  1  0
  3 12  1  0
  3 13  1  0
  4 14  1  0
  4 15  1  0
  5 16  1  0
  5 17  1  0
  6 18  1  0
M  END
>  <Energy>  (3) 
-1.407642184295908

>  <Real charge>  (3) 
0

>  <Mult>  (3) 
1

$$$$
mol_461 333
     RDKit          3D

 18 17  0  0  0  0  0  0  0  0999 V2000
    2.5990    0.3926   -0.3626 C   0  0  0  0  0  0  0  0  0  0  0  0
    1.4523   -0.3387    0.3171 C   0  0  0  0  0  0  0  0  0  0  0  0
    0.0971    0.1180   -0.2242 C   0  0  0  0  0  0  0  0  0  0  0  0
   -1.0531   -0.6214    0.4651 C   0  0  0  0  0  0  0  0  0  0  0  0
   -2.4179   -0.2476   -0.1030 C   0  0  0  0  0  0  0  0  0  0  0  0
   -2.7335    1.1090    0.1747 O   0  0  0  0  0  0  0  0  0  0  0  0
    2.5973    0.2080   -1.4416 H   0  0  0  0  0  0  0  0  0  0  0  0
    3.5579    0.0503    0.0391 H   0  0  0  0  0  0  0  0  0  0  0  0
    2.5279    1.4725   -0.1983 H   0  0  0  0  0  0  0  0  0  0  0  0
    1.5014   -0.1594    1.3975 H   0  0  0  0  0  0  0  0  0  0  0  0
    1.5717   -1.4172    0.1613 H   0  0  0  0  0  0  0  0  0  0  0  0
    0.0540   -0.0625   -1.3051 H   0  0  0  0  0  0  0  0  0  0  0  0
   -0.0067    1.1985   -0.0714 H   0  0  0  0  0  0  0  0  0  0  0  0
   -0.9094   -1.7027    0.3558 H   0  0  0  0  0  0  0  0  0  0  0  0
   -1.0312   -0.3896    1.5369 H   0  0  0  0  0  0  0  0  0  0  0  0
   -2.4624   -0.4088   -1.1851 H   0  0  0  0  0  0  0  0  0  0  0  0
   -3.1919   -0.8668    0.3610 H   0  0  0  0  0  0  0  0  0  0  0  0
   -2.1526    1.6658   -0.3704 H   0  0  0  0  0  0  0  0  0  0  0  0
  1  2  1  0
  2  3  1  0
  3  4  1  0
  4  5  1  0
  5  6  1  0
  1  7  1  0
  1  8  1  0
  1  9  1  0
  2 10  1  0
  2 11  1  0
  3 12  1  0
  3 13  1  0
  4 14  1  0
  4 15  1  0
  5 16  1  0
  5 17  1  0
  6 18  1  0
M  END
>  <Energy>  (4) 
-1.3995594746634243

>  <Real charge>  (4) 
0

>  <Mult>  (4) 
1

$$$$
mol_461 326
     RDKit          3D

 18 17  0  0  0  0  0  0  0  0999 V2000
   -2.4116    0.2547    0.0654 C   0  0  0  0  0  0  0  0  0  0  0  0
   -1.4954   -0.6553   -0.7380 C   0  0  0  0  0  0  0  0  0  0  0  0
   -0.0606   -0.1352   -0.8473 C   0  0  0  0  0  0  0  0  0  0  0  0
    0.6738   -0.0983    0.4920 C   0  0  0  0  0  0  0  0  0  0  0  0
    2.1268    0.3248    0.3212 C   0  0  0  0  0  0  0  0  0  0  0  0
    2.7531    0.3426    1.5966 O   0  0  0  0  0  0  0  0  0  0  0  0
   -3.4399   -0.1189    0.0262 H   0  0  0  0  0  0  0  0  0  0  0  0
   -2.4059    1.2727   -0.3368 H   0  0  0  0  0  0  0  0  0  0  0  0
   -2.1149    0.2958    1.1174 H   0  0  0  0  0  0  0  0  0  0  0  0
   -1.9058   -0.7564   -1.7498 H   0  0  0  0  0  0  0  0  0  0  0  0
   -1.4965   -1.6578   -0.2944 H   0  0  0  0  0  0  0  0  0  0  0  0
   -0.0656    0.8662   -1.2947 H   0  0  0  0  0  0  0  0  0  0  0  0
    0.4879   -0.7870   -1.5387 H   0  0  0  0  0  0  0  0  0  0  0  0
    0.1826    0.5943    1.1853 H   0  0  0  0  0  0  0  0  0  0  0  0
    0.6372   -1.0836    0.9729 H   0  0  0  0  0  0  0  0  0  0  0  0
    2.1929    1.3274   -0.1132 H   0  0  0  0  0  0  0  0  0  0  0  0
    2.6660   -0.3786   -0.3212 H   0  0  0  0  0  0  0  0  0  0  0  0
    3.6760    0.6154    1.4573 H   0  0  0  0  0  0  0  0  0  0  0  0
  1  2  1  0
  2  3  1  0
  3  4  1  0
  4  5  1  0
  5  6  1  0
  1  7  1  0
  1  8  1  0
  1  9  1  0
  2 10  1  0
  2 11  1  0
  3 12  1  0
  3 13  1  0
  4 14  1  0
  4 15  1  0
  5 16  1  0
  5 17  1  0
  6 18  1  0
M  END
>  <Energy>  (5) 
-1.3873347639268727

>  <Real charge>  (5) 
0

>  <Mult>  (5) 
1

$$$$
mol_461 259
     RDKit          3D

 18 17  0  0  0  0  0  0  0  0999 V2000
   -2.5726    0.4034    0.3867 C   0  0  0  0  0  0  0  0  0  0  0  0
   -1.0887    0.6080    0.1221 C   0  0  0  0  0  0  0  0  0  0  0  0
   -0.3943   -0.7136   -0.2086 C   0  0  0  0  0  0  0  0  0  0  0  0
    1.0777   -0.5457   -0.5858 C   0  0  0  0  0  0  0  0  0  0  0  0
    1.9487   -0.0414    0.5581 C   0  0  0  0  0  0  0  0  0  0  0  0
    3.3115   -0.0261    0.1509 O   0  0  0  0  0  0  0  0  0  0  0  0
   -2.7304   -0.2749    1.2313 H   0  0  0  0  0  0  0  0  0  0  0  0
   -3.0737   -0.0173   -0.4909 H   0  0  0  0  0  0  0  0  0  0  0  0
   -3.0503    1.3591    0.6244 H   0  0  0  0  0  0  0  0  0  0  0  0
   -0.9657    1.3120   -0.7089 H   0  0  0  0  0  0  0  0  0  0  0  0
   -0.6350    1.0655    1.0078 H   0  0  0  0  0  0  0  0  0  0  0  0
   -0.9116   -1.1895   -1.0510 H   0  0  0  0  0  0  0  0  0  0  0  0
   -0.4797   -1.4004    0.6423 H   0  0  0  0  0  0  0  0  0  0  0  0
    1.4697   -1.5118   -0.9285 H   0  0  0  0  0  0  0  0  0  0  0  0
    1.1723    0.1297   -1.4453 H   0  0  0  0  0  0  0  0  0  0  0  0
    1.8660   -0.6977    1.4298 H   0  0  0  0  0  0  0  0  0  0  0  0
    1.6752    0.9729    0.8624 H   0  0  0  0  0  0  0  0  0  0  0  0
    3.3810    0.5678   -0.6160 H   0  0  0  0  0  0  0  0  0  0  0  0
  1  2  1  0
  2  3  1  0
  3  4  1  0
  4  5  1  0
  5  6  1  0
  1  7  1  0
  1  8  1  0
  1  9  1  0
  2 10  1  0
  2 11  1  0
  3 12  1  0
  3 13  1  0
  4 14  1  0
  4 15  1  0
  5 16  1  0
  5 17  1  0
  6 18  1  0
M  END
>  <Energy>  (6) 
-1.2541104961042968

>  <Real charge>  (6) 
0

>  <Mult>  (6) 
1

$$$$
mol_461 120
     RDKit          3D

 18 17  0  0  0  0  0  0  0  0999 V2000
   -2.3445   -0.2957    0.0912 C   0  0  0  0  0  0  0  0  0  0  0  0
   -1.4356    0.7128    0.7768 C   0  0  0  0  0  0  0  0  0  0  0  0
   -0.1302    0.9710    0.0216 C   0  0  0  0  0  0  0  0  0  0  0  0
    0.7870   -0.2496   -0.0371 C   0  0  0  0  0  0  0  0  0  0  0  0
    2.1160    0.0820   -0.7050 C   0  0  0  0  0  0  0  0  0  0  0  0
    2.9318   -1.0807   -0.7591 O   0  0  0  0  0  0  0  0  0  0  0  0
   -1.8991   -1.2947    0.0796 H   0  0  0  0  0  0  0  0  0  0  0  0
   -2.5550    0.0025   -0.9406 H   0  0  0  0  0  0  0  0  0  0  0  0
   -3.2979   -0.3649    0.6248 H   0  0  0  0  0  0  0  0  0  0  0  0
   -1.2166    0.3730    1.7958 H   0  0  0  0  0  0  0  0  0  0  0  0
   -1.9766    1.6621    0.8691 H   0  0  0  0  0  0  0  0  0  0  0  0
   -0.3557    1.3141   -0.9955 H   0  0  0  0  0  0  0  0  0  0  0  0
    0.3980    1.7921    0.5219 H   0  0  0  0  0  0  0  0  0  0  0  0
    0.9732   -0.6325    0.9739 H   0  0  0  0  0  0  0  0  0  0  0  0
    0.3097   -1.0687   -0.5872 H   0  0  0  0  0  0  0  0  0  0  0  0
    2.6563    0.8592   -0.1550 H   0  0  0  0  0  0  0  0  0  0  0  0
    1.9600    0.4322   -1.7301 H   0  0  0  0  0  0  0  0  0  0  0  0
    3.0792   -1.3777    0.1550 H   0  0  0  0  0  0  0  0  0  0  0  0
  1  2  1  0
  2  3  1  0
  3  4  1  0
  4  5  1  0
  5  6  1  0
  1  7  1  0
  1  8  1  0
  1  9  1  0
  2 10  1  0
  2 11  1  0
  3 12  1  0
  3 13  1  0
  4 14  1  0
  4 15  1  0
  5 16  1  0
  5 17  1  0
  6 18  1  0
M  END
>  <Energy>  (7) 
-1.2232413436995093

>  <Real charge>  (7) 
0

>  <Mult>  (7) 
1

$$$$
