mol_1108 24
     RDKit          3D

 30 31  0  0  0  0  0  0  0  0999 V2000
    6.5638   -0.0622   -0.3119 C   0  0  0  0  0  0  0  0  0  0  0  0
    5.1016    0.1082   -0.3659 C   0  0  0  0  0  0  0  0  0  0  0  0
    4.0681   -0.1979    0.4823 C   0  0  0  0  0  0  0  0  0  0  0  0
    2.9046    0.2449   -0.1965 C   0  0  0  0  0  0  0  0  0  0  0  0
    3.2252    0.7862   -1.3861 N   0  0  0  0  0  0  0  0  0  0  0  0
    4.6022    0.6965   -1.4846 O   0  0  0  0  0  0  0  0  0  0  0  0
    1.5209    0.1599    0.2674 C   0  0  0  0  0  0  0  0  0  0  0  0
    1.2095   -0.3314    1.3516 O   0  0  0  0  0  0  0  0  0  0  0  0
    0.5907    0.6854   -0.6240 N   0  0  0  0  0  0  0  0  0  0  0  0
   -0.7737    0.7927   -0.2634 N   0  0  0  0  0  0  0  0  0  0  0  0
   -1.5532   -0.3061   -0.8469 C   0  0  0  0  0  0  0  0  0  0  0  0
   -2.9874   -0.2549   -0.3790 C   0  0  0  0  0  0  0  0  0  0  0  0
   -3.4183   -1.0564    0.6882 C   0  0  0  0  0  0  0  0  0  0  0  0
   -4.7413   -0.9958    1.1295 C   0  0  0  0  0  0  0  0  0  0  0  0
   -5.6435   -0.1294    0.5147 C   0  0  0  0  0  0  0  0  0  0  0  0
   -5.2237    0.6807   -0.5387 C   0  0  0  0  0  0  0  0  0  0  0  0
   -3.9014    0.6216   -0.9816 C   0  0  0  0  0  0  0  0  0  0  0  0
    6.9085   -0.6847   -1.1433 H   0  0  0  0  0  0  0  0  0  0  0  0
    7.0658    0.9081   -0.3752 H   0  0  0  0  0  0  0  0  0  0  0  0
    6.8689   -0.5431    0.6226 H   0  0  0  0  0  0  0  0  0  0  0  0
    4.1257   -0.6701    1.4523 H   0  0  0  0  0  0  0  0  0  0  0  0
    0.9376    1.1708   -1.4512 H   0  0  0  0  0  0  0  0  0  0  0  0
   -0.8350    0.7017    0.7590 H   0  0  0  0  0  0  0  0  0  0  0  0
   -1.1158   -1.2763   -0.5781 H   0  0  0  0  0  0  0  0  0  0  0  0
   -1.5313   -0.2444   -1.9424 H   0  0  0  0  0  0  0  0  0  0  0  0
   -2.7238   -1.7317    1.1836 H   0  0  0  0  0  0  0  0  0  0  0  0
   -5.0669   -1.6222    1.9558 H   0  0  0  0  0  0  0  0  0  0  0  0
   -6.6726   -0.0811    0.8606 H   0  0  0  0  0  0  0  0  0  0  0  0
   -5.9242    1.3631   -1.0126 H   0  0  0  0  0  0  0  0  0  0  0  0
   -3.5811    1.2678   -1.7960 H   0  0  0  0  0  0  0  0  0  0  0  0
  1  2  1  0
  2  3  2  0
  3  4  1  0
  4  5  2  0
  5  6  1  0
  4  7  1  0
  7  8  2  0
  7  9  1  0
  9 10  1  0
 10 11  1  0
 11 12  1  0
 12 13  2  0
 13 14  1  0
 14 15  2  0
 15 16  1  0
 16 17  2  0
  6  2  1  0
 17 12  1  0
  1 18  1  0
  1 19  1  0
  1 20  1  0
  3 21  1  0
  9 22  1  0
 10 23  1  0
 11 24  1  0
 11 25  1  0
 13 26  1  0
 14 27  1  0
 15 28  1  0
 16 29  1  0
 17 30  1  0
M  END
>  <Energy>  (1) 
86.35262644337554

>  <Real charge>  (1) 
0

>  <Mult>  (1) 
1

$$$$
mol_1108 309
     RDKit          3D

 30 31  0  0  0  0  0  0  0  0999 V2000
    5.3764    1.5870   -0.7546 C   0  0  0  0  0  0  0  0  0  0  0  0
    4.1003    1.0184   -0.2876 C   0  0  0  0  0  0  0  0  0  0  0  0
    3.7050   -0.2191    0.1522 C   0  0  0  0  0  0  0  0  0  0  0  0
    2.3258   -0.0710    0.4473 C   0  0  0  0  0  0  0  0  0  0  0  0
    1.9188    1.1864    0.1949 N   0  0  0  0  0  0  0  0  0  0  0  0
    3.0352    1.8620   -0.2639 O   0  0  0  0  0  0  0  0  0  0  0  0
    1.4137   -1.0957    0.9516 C   0  0  0  0  0  0  0  0  0  0  0  0
    1.7638   -2.2569    1.1616 O   0  0  0  0  0  0  0  0  0  0  0  0
    0.1164   -0.6490    1.1662 N   0  0  0  0  0  0  0  0  0  0  0  0
   -0.8873   -1.5283    1.6462 N   0  0  0  0  0  0  0  0  0  0  0  0
   -1.7966   -1.9370    0.5642 C   0  0  0  0  0  0  0  0  0  0  0  0
   -2.6091   -0.7868    0.0141 C   0  0  0  0  0  0  0  0  0  0  0  0
   -2.3852   -0.3108   -1.2859 C   0  0  0  0  0  0  0  0  0  0  0  0
   -3.1308    0.7581   -1.7864 C   0  0  0  0  0  0  0  0  0  0  0  0
   -4.1049    1.3624   -0.9936 C   0  0  0  0  0  0  0  0  0  0  0  0
   -4.3335    0.9010    0.3013 C   0  0  0  0  0  0  0  0  0  0  0  0
   -3.5890   -0.1672    0.8037 C   0  0  0  0  0  0  0  0  0  0  0  0
    5.6828    2.4196   -0.1140 H   0  0  0  0  0  0  0  0  0  0  0  0
    5.2792    1.9570   -1.7798 H   0  0  0  0  0  0  0  0  0  0  0  0
    6.1710    0.8346   -0.7382 H   0  0  0  0  0  0  0  0  0  0  0  0
    4.3084   -1.1094    0.2534 H   0  0  0  0  0  0  0  0  0  0  0  0
   -0.1140    0.3263    0.9706 H   0  0  0  0  0  0  0  0  0  0  0  0
   -0.4097   -2.3722    1.9864 H   0  0  0  0  0  0  0  0  0  0  0  0
   -2.4911   -2.6906    0.9551 H   0  0  0  0  0  0  0  0  0  0  0  0
   -1.2326   -2.4314   -0.2372 H   0  0  0  0  0  0  0  0  0  0  0  0
   -1.6248   -0.7671   -1.9155 H   0  0  0  0  0  0  0  0  0  0  0  0
   -2.9494    1.1214   -2.7946 H   0  0  0  0  0  0  0  0  0  0  0  0
   -4.6833    2.1957   -1.3836 H   0  0  0  0  0  0  0  0  0  0  0  0
   -5.0885    1.3753    0.9226 H   0  0  0  0  0  0  0  0  0  0  0  0
   -3.7670   -0.5126    1.8200 H   0  0  0  0  0  0  0  0  0  0  0  0
  1  2  1  0
  2  3  2  0
  3  4  1  0
  4  5  2  0
  5  6  1  0
  4  7  1  0
  7  8  2  0
  7  9  1  0
  9 10  1  0
 10 11  1  0
 11 12  1  0
 12 13  2  0
 13 14  1  0
 14 15  2  0
 15 16  1  0
 16 17  2  0
  6  2  1  0
 17 12  1  0
  1 18  1  0
  1 19  1  0
  1 20  1  0
  3 21  1  0
  9 22  1  0
 10 23  1  0
 11 24  1  0
 11 25  1  0
 13 26  1  0
 14 27  1  0
 15 28  1  0
 16 29  1  0
 17 30  1  0
M  END
>  <Energy>  (2) 
86.67796844940621

>  <Real charge>  (2) 
0

>  <Mult>  (2) 
1

$$$$
