mol_1027 375
     RDKit          3D

 24 24  0  0  0  0  0  0  0  0999 V2000
    1.0950   -2.5356   -0.5028 O   0  0  0  0  0  0  0  0  0  0  0  0
    0.4913   -1.3876    0.1111 C   0  0  0  0  0  0  0  0  0  0  0  0
   -0.8404   -1.0695   -0.5737 C   0  0  0  0  0  0  0  0  0  0  0  0
   -1.7326   -2.1763   -0.3783 O   0  0  0  0  0  0  0  0  0  0  0  0
   -1.4615    0.2083   -0.0036 C   0  0  0  0  0  0  0  0  0  0  0  0
   -2.6649    0.4971   -0.7300 O   0  0  0  0  0  0  0  0  0  0  0  0
   -0.4913    1.3876   -0.1111 C   0  0  0  0  0  0  0  0  0  0  0  0
   -1.0950    2.5356    0.5028 O   0  0  0  0  0  0  0  0  0  0  0  0
    0.8404    1.0695    0.5737 C   0  0  0  0  0  0  0  0  0  0  0  0
    1.7326    2.1763    0.3783 O   0  0  0  0  0  0  0  0  0  0  0  0
    1.4615   -0.2083    0.0036 C   0  0  0  0  0  0  0  0  0  0  0  0
    2.6649   -0.4971    0.7300 O   0  0  0  0  0  0  0  0  0  0  0  0
    0.3741   -3.1963   -0.5673 H   0  0  0  0  0  0  0  0  0  0  0  0
    0.3329   -1.6602    1.1618 H   0  0  0  0  0  0  0  0  0  0  0  0
   -0.7038   -0.9848   -1.6589 H   0  0  0  0  0  0  0  0  0  0  0  0
   -2.6086   -1.8497   -0.6719 H   0  0  0  0  0  0  0  0  0  0  0  0
   -1.7715    0.0535    1.0373 H   0  0  0  0  0  0  0  0  0  0  0  0
   -2.9165    1.4027   -0.4526 H   0  0  0  0  0  0  0  0  0  0  0  0
   -0.3329    1.6603   -1.1618 H   0  0  0  0  0  0  0  0  0  0  0  0
   -0.3741    3.1963    0.5673 H   0  0  0  0  0  0  0  0  0  0  0  0
    0.7038    0.9848    1.6589 H   0  0  0  0  0  0  0  0  0  0  0  0
    2.6086    1.8497    0.6719 H   0  0  0  0  0  0  0  0  0  0  0  0
    1.7715   -0.0535   -1.0373 H   0  0  0  0  0  0  0  0  0  0  0  0
    2.9165   -1.4026    0.4525 H   0  0  0  0  0  0  0  0  0  0  0  0
  1  2  1  0
  2  3  1  0
  3  4  1  0
  3  5  1  0
  5  6  1  0
  5  7  1  0
  7  8  1  0
  7  9  1  0
  9 10  1  0
  9 11  1  0
 11 12  1  0
 11  2  1  0
  1 13  1  0
  2 14  1  0
  3 15  1  0
  4 16  1  0
  5 17  1  0
  6 18  1  0
  7 19  1  0
  8 20  1  0
  9 21  1  0
 10 22  1  0
 11 23  1  0
 12 24  1  0
M  END
>  <Energy>  (1) 
103.84808705492028

>  <Real charge>  (1) 
0

>  <Mult>  (1) 
1

$$$$
mol_1027 172
     RDKit          3D

 24 24  0  0  0  0  0  0  0  0999 V2000
    1.1351    1.9734   -0.1070 O   0  0  0  0  0  0  0  0  0  0  0  0
    0.5490    1.0790    0.8585 C   0  0  0  0  0  0  0  0  0  0  0  0
   -0.9513    0.9815    0.5724 C   0  0  0  0  0  0  0  0  0  0  0  0
   -1.5250    2.2988    0.5135 O   0  0  0  0  0  0  0  0  0  0  0  0
   -1.2336    0.2867   -0.7697 C   0  0  0  0  0  0  0  0  0  0  0  0
   -2.6527    0.0916   -0.8975 O   0  0  0  0  0  0  0  0  0  0  0  0
   -0.5490   -1.0790   -0.8585 C   0  0  0  0  0  0  0  0  0  0  0  0
   -1.1351   -1.9734    0.1070 O   0  0  0  0  0  0  0  0  0  0  0  0
    0.9513   -0.9815   -0.5724 C   0  0  0  0  0  0  0  0  0  0  0  0
    1.5250   -2.2988   -0.5134 O   0  0  0  0  0  0  0  0  0  0  0  0
    1.2336   -0.2867    0.7697 C   0  0  0  0  0  0  0  0  0  0  0  0
    2.6527   -0.0916    0.8975 O   0  0  0  0  0  0  0  0  0  0  0  0
    2.1025    1.8868    0.0372 H   0  0  0  0  0  0  0  0  0  0  0  0
    0.7248    1.5416    1.8361 H   0  0  0  0  0  0  0  0  0  0  0  0
   -1.4626    0.4529    1.3851 H   0  0  0  0  0  0  0  0  0  0  0  0
   -0.8316    2.8647    0.1125 H   0  0  0  0  0  0  0  0  0  0  0  0
   -0.9221    0.9240   -1.6057 H   0  0  0  0  0  0  0  0  0  0  0  0
   -3.0506    0.9540   -0.6565 H   0  0  0  0  0  0  0  0  0  0  0  0
   -0.7248   -1.5416   -1.8361 H   0  0  0  0  0  0  0  0  0  0  0  0
   -2.1025   -1.8869   -0.0372 H   0  0  0  0  0  0  0  0  0  0  0  0
    1.4626   -0.4529   -1.3851 H   0  0  0  0  0  0  0  0  0  0  0  0
    0.8316   -2.8647   -0.1125 H   0  0  0  0  0  0  0  0  0  0  0  0
    0.9221   -0.9240    1.6057 H   0  0  0  0  0  0  0  0  0  0  0  0
    3.0506   -0.9540    0.6564 H   0  0  0  0  0  0  0  0  0  0  0  0
  1  2  1  0
  2  3  1  0
  3  4  1  0
  3  5  1  0
  5  6  1  0
  5  7  1  0
  7  8  1  0
  7  9  1  0
  9 10  1  0
  9 11  1  0
 11 12  1  0
 11  2  1  0
  1 13  1  0
  2 14  1  0
  3 15  1  0
  4 16  1  0
  5 17  1  0
  6 18  1  0
  7 19  1  0
  8 20  1  0
  9 21  1  0
 10 22  1  0
 11 23  1  0
 12 24  1  0
M  END
>  <Energy>  (2) 
104.36288885122296

>  <Real charge>  (2) 
0

>  <Mult>  (2) 
1

$$$$
mol_1027 419
     RDKit          3D

 24 24  0  0  0  0  0  0  0  0999 V2000
   -1.7653    1.2484    0.6251 O   0  0  0  0  0  0  0  0  0  0  0  0
   -1.3445    0.5636   -0.5691 C   0  0  0  0  0  0  0  0  0  0  0  0
   -0.0169    1.1747   -1.0297 C   0  0  0  0  0  0  0  0  0  0  0  0
   -0.1447    2.6012   -1.1350 O   0  0  0  0  0  0  0  0  0  0  0  0
    1.1214    0.8721   -0.0455 C   0  0  0  0  0  0  0  0  0  0  0  0
    2.3643    1.3577   -0.5784 O   0  0  0  0  0  0  0  0  0  0  0  0
    1.2536   -0.6322    0.1979 C   0  0  0  0  0  0  0  0  0  0  0  0
    2.2745   -0.8856    1.1747 O   0  0  0  0  0  0  0  0  0  0  0  0
   -0.0642   -1.2247    0.6985 C   0  0  0  0  0  0  0  0  0  0  0  0
    0.0640   -2.6488    0.8378 O   0  0  0  0  0  0  0  0  0  0  0  0
   -1.2092   -0.9344   -0.2797 C   0  0  0  0  0  0  0  0  0  0  0  0
   -2.4404   -1.4019    0.2930 O   0  0  0  0  0  0  0  0  0  0  0  0
   -2.5260    0.7227    0.9551 H   0  0  0  0  0  0  0  0  0  0  0  0
   -2.1303    0.7487   -1.3099 H   0  0  0  0  0  0  0  0  0  0  0  0
    0.2479    0.8060   -2.0274 H   0  0  0  0  0  0  0  0  0  0  0  0
   -0.7392    2.8627   -0.3998 H   0  0  0  0  0  0  0  0  0  0  0  0
    0.9774    1.4057    0.9019 H   0  0  0  0  0  0  0  0  0  0  0  0
    2.1671    2.2594   -0.9069 H   0  0  0  0  0  0  0  0  0  0  0  0
    1.5831   -1.1452   -0.7141 H   0  0  0  0  0  0  0  0  0  0  0  0
    3.0285   -0.3217    0.9034 H   0  0  0  0  0  0  0  0  0  0  0  0
   -0.3039   -0.8500    1.7012 H   0  0  0  0  0  0  0  0  0  0  0  0
    0.9061   -2.7771    1.3228 H   0  0  0  0  0  0  0  0  0  0  0  0
   -1.0574   -1.4883   -1.2139 H   0  0  0  0  0  0  0  0  0  0  0  0
   -2.2460   -2.3130    0.5980 H   0  0  0  0  0  0  0  0  0  0  0  0
  1  2  1  0
  2  3  1  0
  3  4  1  0
  3  5  1  0
  5  6  1  0
  5  7  1  0
  7  8  1  0
  7  9  1  0
  9 10  1  0
  9 11  1  0
 11 12  1  0
 11  2  1  0
  1 13  1  0
  2 14  1  0
  3 15  1  0
  4 16  1  0
  5 17  1  0
  6 18  1  0
  7 19  1  0
  8 20  1  0
  9 21  1  0
 10 22  1  0
 11 23  1  0
 12 24  1  0
M  END
>  <Energy>  (3) 
104.40394073602737

>  <Real charge>  (3) 
0

>  <Mult>  (3) 
1

$$$$
