mol_684 7
     RDKit          3D

 26 27  0  0  0  0  0  0  0  0999 V2000
   -3.6582    0.0856   -0.7084 C   0  0  0  0  0  0  0  0  0  0  0  0
   -2.2933    0.6049   -0.4041 C   0  0  0  0  0  0  0  0  0  0  0  0
   -1.9314    1.8938   -0.4478 C   0  0  0  0  0  0  0  0  0  0  0  0
   -0.5008    1.9308   -0.0761 C   0  0  0  0  0  0  0  0  0  0  0  0
    0.1391    2.9695   -0.0590 O   0  0  0  0  0  0  0  0  0  0  0  0
   -0.1143    0.6039    0.1516 N   0  0  0  0  0  0  0  0  0  0  0  0
    1.2112    0.1059    0.0513 C   0  0  0  0  0  0  0  0  0  0  0  0
    2.3097    0.9283    0.3371 C   0  0  0  0  0  0  0  0  0  0  0  0
    3.6184    0.4423    0.2448 C   0  0  0  0  0  0  0  0  0  0  0  0
    3.8497   -0.8746   -0.1407 C   0  0  0  0  0  0  0  0  0  0  0  0
    2.7732   -1.7046   -0.4380 C   0  0  0  0  0  0  0  0  0  0  0  0
    1.4657   -1.2167   -0.3435 C   0  0  0  0  0  0  0  0  0  0  0  0
   -1.2508   -0.2464   -0.0180 N   0  0  0  0  0  0  0  0  0  0  0  0
   -1.4878   -1.1500    1.1212 C   0  0  0  0  0  0  0  0  0  0  0  0
   -4.3128    0.8770   -1.0886 H   0  0  0  0  0  0  0  0  0  0  0  0
   -4.1253   -0.3310    0.1894 H   0  0  0  0  0  0  0  0  0  0  0  0
   -3.6063   -0.6988   -1.4703 H   0  0  0  0  0  0  0  0  0  0  0  0
   -2.5059    2.7636   -0.7040 H   0  0  0  0  0  0  0  0  0  0  0  0
    2.1699    1.9590    0.6536 H   0  0  0  0  0  0  0  0  0  0  0  0
    4.4541    1.0984    0.4747 H   0  0  0  0  0  0  0  0  0  0  0  0
    4.8667   -1.2500   -0.2163 H   0  0  0  0  0  0  0  0  0  0  0  0
    2.9475   -2.7296   -0.7543 H   0  0  0  0  0  0  0  0  0  0  0  0
    0.6499   -1.8792   -0.6187 H   0  0  0  0  0  0  0  0  0  0  0  0
   -1.8005   -0.5859    2.0076 H   0  0  0  0  0  0  0  0  0  0  0  0
   -2.2724   -1.8722    0.8719 H   0  0  0  0  0  0  0  0  0  0  0  0
   -0.5952   -1.7241    1.3845 H   0  0  0  0  0  0  0  0  0  0  0  0
  1  2  1  0
  2  3  2  0
  3  4  1  0
  4  5  2  0
  4  6  1  0
  6  7  1  0
  7  8  2  0
  8  9  1  0
  9 10  2  0
 10 11  1  0
 11 12  2  0
  6 13  1  0
 13 14  1  0
 13  2  1  0
 12  7  1  0
  1 15  1  0
  1 16  1  0
  1 17  1  0
  3 18  1  0
  8 19  1  0
  9 20  1  0
 10 21  1  0
 11 22  1  0
 12 23  1  0
 14 24  1  0
 14 25  1  0
 14 26  1  0
M  END
>  <Energy>  (1) 
61.133737211656765

>  <Real charge>  (1) 
0

>  <Mult>  (1) 
1

$$$$
