mol_967 345
     RDKit          3D

 55 58  0  0  0  0  0  0  0  0999 V2000
    2.4559    1.2753    1.0553 C   0  0  0  0  0  0  0  0  0  0  0  0
    2.0404    0.0155    0.2787 C   0  0  0  0  0  0  0  0  0  0  0  0
    1.4243    0.4072   -1.0795 C   0  0  0  0  0  0  0  0  0  0  0  0
    0.0315    1.0431   -0.9759 C   0  0  0  0  0  0  0  0  0  0  0  0
   -0.4146    1.2870   -2.3055 O   0  0  0  0  0  0  0  0  0  0  0  0
   -0.9780    0.1345   -0.2230 C   0  0  0  0  0  0  0  0  0  0  0  0
   -0.3812   -0.2623    1.1590 C   0  0  0  0  0  0  0  0  0  0  0  0
   -1.3151   -1.2210    1.9091 C   0  0  0  0  0  0  0  0  0  0  0  0
   -2.6786   -0.5899    2.1299 C   0  0  0  0  0  0  0  0  0  0  0  0
   -3.3026   -0.1757    0.8214 C   0  0  0  0  0  0  0  0  0  0  0  0
   -4.5512   -0.5882    0.5377 C   0  0  0  0  0  0  0  0  0  0  0  0
   -5.2736   -0.1239   -0.6656 C   0  0  0  0  0  0  0  0  0  0  0  0
   -6.3975   -0.5600   -0.9022 O   0  0  0  0  0  0  0  0  0  0  0  0
   -4.6290    0.9458   -1.4997 C   0  0  0  0  0  0  0  0  0  0  0  0
   -3.1164    0.7741   -1.5145 C   0  0  0  0  0  0  0  0  0  0  0  0
   -2.4560    0.7217   -0.1016 C   0  0  0  0  0  0  0  0  0  0  0  0
   -2.4533    2.1484    0.4937 C   0  0  0  0  0  0  0  0  0  0  0  0
    1.0452   -0.8462    1.0831 C   0  0  0  0  0  0  0  0  0  0  0  0
    1.1611   -2.2374    0.4401 C   0  0  0  0  0  0  0  0  0  0  0  0
    2.6018   -2.3464   -0.0634 C   0  0  0  0  0  0  0  0  0  0  0  0
    3.2351   -0.9646    0.1469 C   0  0  0  0  0  0  0  0  0  0  0  0
    4.2442   -0.6088   -0.9377 C   0  0  0  0  0  0  0  0  0  0  0  0
    4.0377   -0.8108   -2.1366 O   0  0  0  0  0  0  0  0  0  0  0  0
    5.5589    0.0114   -0.4774 C   0  0  0  0  0  0  0  0  0  0  0  0
    6.3023    0.5311   -1.5685 O   0  0  0  0  0  0  0  0  0  0  0  0
    3.1741    1.8715    0.4826 H   0  0  0  0  0  0  0  0  0  0  0  0
    1.6023    1.9209    1.2821 H   0  0  0  0  0  0  0  0  0  0  0  0
    2.9268    1.0162    2.0102 H   0  0  0  0  0  0  0  0  0  0  0  0
    1.3507   -0.4651   -1.7428 H   0  0  0  0  0  0  0  0  0  0  0  0
    2.0912    1.1020   -1.6078 H   0  0  0  0  0  0  0  0  0  0  0  0
    0.1117    2.0136   -0.4765 H   0  0  0  0  0  0  0  0  0  0  0  0
    0.2758    1.7909   -2.7710 H   0  0  0  0  0  0  0  0  0  0  0  0
   -1.0775   -0.7877   -0.8146 H   0  0  0  0  0  0  0  0  0  0  0  0
   -0.3053    0.6520    1.7625 H   0  0  0  0  0  0  0  0  0  0  0  0
   -0.8811   -1.4803    2.8824 H   0  0  0  0  0  0  0  0  0  0  0  0
   -1.4339   -2.1588    1.3521 H   0  0  0  0  0  0  0  0  0  0  0  0
   -3.3141   -1.3034    2.6688 H   0  0  0  0  0  0  0  0  0  0  0  0
   -2.5841    0.2884    2.7799 H   0  0  0  0  0  0  0  0  0  0  0  0
   -5.1227   -1.2343    1.1951 H   0  0  0  0  0  0  0  0  0  0  0  0
   -4.9214    1.9236   -1.1039 H   0  0  0  0  0  0  0  0  0  0  0  0
   -5.0096    0.8650   -2.5240 H   0  0  0  0  0  0  0  0  0  0  0  0
   -2.8843   -0.1512   -2.0596 H   0  0  0  0  0  0  0  0  0  0  0  0
   -2.7100    1.6019   -2.1043 H   0  0  0  0  0  0  0  0  0  0  0  0
   -2.0030    2.8704   -0.1958 H   0  0  0  0  0  0  0  0  0  0  0  0
   -3.4705    2.4994    0.7034 H   0  0  0  0  0  0  0  0  0  0  0  0
   -1.8984    2.2037    1.4354 H   0  0  0  0  0  0  0  0  0  0  0  0
    1.4183   -0.9388    2.1148 H   0  0  0  0  0  0  0  0  0  0  0  0
    0.9356   -3.0304    1.1613 H   0  0  0  0  0  0  0  0  0  0  0  0
    0.4719   -2.3619   -0.4015 H   0  0  0  0  0  0  0  0  0  0  0  0
    2.6119   -2.6672   -1.1108 H   0  0  0  0  0  0  0  0  0  0  0  0
    3.1534   -3.1056    0.5032 H   0  0  0  0  0  0  0  0  0  0  0  0
    3.7825   -1.0067    1.0995 H   0  0  0  0  0  0  0  0  0  0  0  0
    6.1560   -0.7583    0.0189 H   0  0  0  0  0  0  0  0  0  0  0  0
    5.3598    0.8295    0.2180 H   0  0  0  0  0  0  0  0  0  0  0  0
    6.0024    0.0408   -2.3613 H   0  0  0  0  0  0  0  0  0  0  0  0
  1  2  1  0
  2  3  1  0
  3  4  1  0
  4  5  1  0
  4  6  1  0
  6  7  1  0
  7  8  1  0
  8  9  1  0
  9 10  1  0
 10 11  2  0
 11 12  1  0
 12 13  2  0
 12 14  1  0
 14 15  1  0
 15 16  1  0
 16 17  1  0
  7 18  1  0
 18 19  1  0
 19 20  1  0
 20 21  1  0
 21 22  1  0
 22 23  2  0
 22 24  1  0
 24 25  1  0
 21  2  1  0
 18  2  1  0
 16  6  1  0
 16 10  1  0
  1 26  1  0
  1 27  1  0
  1 28  1  0
  3 29  1  0
  3 30  1  0
  4 31  1  0
  5 32  1  0
  6 33  1  0
  7 34  1  0
  8 35  1  0
  8 36  1  0
  9 37  1  0
  9 38  1  0
 11 39  1  0
 14 40  1  0
 14 41  1  0
 15 42  1  0
 15 43  1  0
 17 44  1  0
 17 45  1  0
 17 46  1  0
 18 47  1  0
 19 48  1  0
 19 49  1  0
 20 50  1  0
 20 51  1  0
 21 52  1  0
 24 53  1  0
 24 54  1  0
 25 55  1  0
M  END
>  <Energy>  (1) 
95.73704116769771

>  <Real charge>  (1) 
0

>  <Mult>  (1) 
1

$$$$
mol_967 209
     RDKit          3D

 55 58  0  0  0  0  0  0  0  0999 V2000
    2.4442    1.4266   -0.6144 C   0  0  0  0  0  0  0  0  0  0  0  0
    1.9965   -0.0288   -0.3955 C   0  0  0  0  0  0  0  0  0  0  0  0
    1.1142   -0.4761   -1.5824 C   0  0  0  0  0  0  0  0  0  0  0  0
   -0.2814    0.1594   -1.6044 C   0  0  0  0  0  0  0  0  0  0  0  0
   -0.9714   -0.4149   -2.7097 O   0  0  0  0  0  0  0  0  0  0  0  0
   -1.0623   -0.0852   -0.2851 C   0  0  0  0  0  0  0  0  0  0  0  0
   -0.1938    0.3815    0.9203 C   0  0  0  0  0  0  0  0  0  0  0  0
   -0.8995    0.0985    2.2532 C   0  0  0  0  0  0  0  0  0  0  0  0
   -2.2449    0.7997    2.3174 C   0  0  0  0  0  0  0  0  0  0  0  0
   -3.1263    0.3876    1.1654 C   0  0  0  0  0  0  0  0  0  0  0  0
   -4.3691   -0.0577    1.4241 C   0  0  0  0  0  0  0  0  0  0  0  0
   -5.3307   -0.3620    0.3434 C   0  0  0  0  0  0  0  0  0  0  0  0
   -6.4392   -0.8090    0.6268 O   0  0  0  0  0  0  0  0  0  0  0  0
   -4.9346   -0.0150   -1.0633 C   0  0  0  0  0  0  0  0  0  0  0  0
   -3.4413   -0.2304   -1.2663 C   0  0  0  0  0  0  0  0  0  0  0  0
   -2.5336    0.5289   -0.2493 C   0  0  0  0  0  0  0  0  0  0  0  0
   -2.5326    2.0307   -0.6166 C   0  0  0  0  0  0  0  0  0  0  0  0
    1.2341   -0.2061    0.9310 C   0  0  0  0  0  0  0  0  0  0  0  0
    1.3278   -1.7124    1.2192 C   0  0  0  0  0  0  0  0  0  0  0  0
    2.6224   -2.1982    0.5626 C   0  0  0  0  0  0  0  0  0  0  0  0
    3.1867   -1.0121   -0.2341 C   0  0  0  0  0  0  0  0  0  0  0  0
    4.3950   -0.4269    0.4978 C   0  0  0  0  0  0  0  0  0  0  0  0
    4.3875   -0.1731    1.7048 O   0  0  0  0  0  0  0  0  0  0  0  0
    5.6437   -0.1685   -0.3382 C   0  0  0  0  0  0  0  0  0  0  0  0
    6.6133    0.5754    0.3824 O   0  0  0  0  0  0  0  0  0  0  0  0
    3.0699    1.5110   -1.5096 H   0  0  0  0  0  0  0  0  0  0  0  0
    3.0192    1.8100    0.2349 H   0  0  0  0  0  0  0  0  0  0  0  0
    1.5945    2.1039   -0.7428 H   0  0  0  0  0  0  0  0  0  0  0  0
    1.6268   -0.2575   -2.5294 H   0  0  0  0  0  0  0  0  0  0  0  0
    0.9910   -1.5678   -1.5887 H   0  0  0  0  0  0  0  0  0  0  0  0
   -0.1938    1.2329   -1.7969 H   0  0  0  0  0  0  0  0  0  0  0  0
   -0.4885   -0.1793   -3.5208 H   0  0  0  0  0  0  0  0  0  0  0  0
   -1.1968   -1.1730   -0.1920 H   0  0  0  0  0  0  0  0  0  0  0  0
   -0.0753    1.4707    0.8421 H   0  0  0  0  0  0  0  0  0  0  0  0
   -0.2770    0.4461    3.0867 H   0  0  0  0  0  0  0  0  0  0  0  0
   -1.0450   -0.9802    2.3917 H   0  0  0  0  0  0  0  0  0  0  0  0
   -2.1023    1.8869    2.2935 H   0  0  0  0  0  0  0  0  0  0  0  0
   -2.7149    0.5732    3.2824 H   0  0  0  0  0  0  0  0  0  0  0  0
   -4.7593   -0.1654    2.4304 H   0  0  0  0  0  0  0  0  0  0  0  0
   -5.2256    1.0208   -1.2648 H   0  0  0  0  0  0  0  0  0  0  0  0
   -5.4879   -0.6643   -1.7509 H   0  0  0  0  0  0  0  0  0  0  0  0
   -3.2411   -1.3086   -1.1992 H   0  0  0  0  0  0  0  0  0  0  0  0
   -3.2137    0.0725   -2.2934 H   0  0  0  0  0  0  0  0  0  0  0  0
   -2.2752    2.1865   -1.6696 H   0  0  0  0  0  0  0  0  0  0  0  0
   -3.5180    2.4847   -0.4589 H   0  0  0  0  0  0  0  0  0  0  0  0
   -1.8195    2.6039   -0.0161 H   0  0  0  0  0  0  0  0  0  0  0  0
    1.7891    0.3087    1.7287 H   0  0  0  0  0  0  0  0  0  0  0  0
    0.4806   -2.2680    0.8043 H   0  0  0  0  0  0  0  0  0  0  0  0
    1.3401   -1.9065    2.2974 H   0  0  0  0  0  0  0  0  0  0  0  0
    3.3235   -2.5805    1.3126 H   0  0  0  0  0  0  0  0  0  0  0  0
    2.3955   -3.0328   -0.1115 H   0  0  0  0  0  0  0  0  0  0  0  0
    3.5438   -1.3661   -1.2093 H   0  0  0  0  0  0  0  0  0  0  0  0
    6.0806   -1.1287   -0.6249 H   0  0  0  0  0  0  0  0  0  0  0  0
    5.3750    0.3986   -1.2328 H   0  0  0  0  0  0  0  0  0  0  0  0
    6.3996    0.4567    1.3307 H   0  0  0  0  0  0  0  0  0  0  0  0
  1  2  1  0
  2  3  1  0
  3  4  1  0
  4  5  1  0
  4  6  1  0
  6  7  1  0
  7  8  1  0
  8  9  1  0
  9 10  1  0
 10 11  2  0
 11 12  1  0
 12 13  2  0
 12 14  1  0
 14 15  1  0
 15 16  1  0
 16 17  1  0
  7 18  1  0
 18 19  1  0
 19 20  1  0
 20 21  1  0
 21 22  1  0
 22 23  2  0
 22 24  1  0
 24 25  1  0
 21  2  1  0
 18  2  1  0
 16  6  1  0
 16 10  1  0
  1 26  1  0
  1 27  1  0
  1 28  1  0
  3 29  1  0
  3 30  1  0
  4 31  1  0
  5 32  1  0
  6 33  1  0
  7 34  1  0
  8 35  1  0
  8 36  1  0
  9 37  1  0
  9 38  1  0
 11 39  1  0
 14 40  1  0
 14 41  1  0
 15 42  1  0
 15 43  1  0
 17 44  1  0
 17 45  1  0
 17 46  1  0
 18 47  1  0
 19 48  1  0
 19 49  1  0
 20 50  1  0
 20 51  1  0
 21 52  1  0
 24 53  1  0
 24 54  1  0
 25 55  1  0
M  END
>  <Energy>  (2) 
95.9764080273178

>  <Real charge>  (2) 
0

>  <Mult>  (2) 
1

$$$$
mol_967 145
     RDKit          3D

 55 58  0  0  0  0  0  0  0  0999 V2000
   -2.3862   -1.6579    0.1870 C   0  0  0  0  0  0  0  0  0  0  0  0
   -2.0138   -0.2649   -0.3484 C   0  0  0  0  0  0  0  0  0  0  0  0
   -1.1856   -0.4181   -1.6437 C   0  0  0  0  0  0  0  0  0  0  0  0
    0.2423   -0.9315   -1.4211 C   0  0  0  0  0  0  0  0  0  0  0  0
    0.8662   -0.9616   -2.7012 O   0  0  0  0  0  0  0  0  0  0  0  0
    1.0432   -0.0624   -0.4150 C   0  0  0  0  0  0  0  0  0  0  0  0
    0.2243    0.0921    0.9007 C   0  0  0  0  0  0  0  0  0  0  0  0
    0.9472    1.0119    1.8940 C   0  0  0  0  0  0  0  0  0  0  0  0
    2.3256    0.4717    2.2340 C   0  0  0  0  0  0  0  0  0  0  0  0
    3.1585    0.2851    0.9903 C   0  0  0  0  0  0  0  0  0  0  0  0
    4.3870    0.8311    0.9418 C   0  0  0  0  0  0  0  0  0  0  0  0
    5.3054    0.5870   -0.1908 C   0  0  0  0  0  0  0  0  0  0  0  0
    6.3933    1.1559   -0.2230 O   0  0  0  0  0  0  0  0  0  0  0  0
    4.8926   -0.4285   -1.2178 C   0  0  0  0  0  0  0  0  0  0  0  0
    3.3872   -0.3763   -1.4400 C   0  0  0  0  0  0  0  0  0  0  0  0
    2.5367   -0.5510   -0.1438 C   0  0  0  0  0  0  0  0  0  0  0  0
    2.5843   -2.0379    0.2771 C   0  0  0  0  0  0  0  0  0  0  0  0
   -1.2305    0.5632    0.6875 C   0  0  0  0  0  0  0  0  0  0  0  0
   -1.3947    2.0138    0.2090 C   0  0  0  0  0  0  0  0  0  0  0  0
   -2.7297    2.0723   -0.5386 C   0  0  0  0  0  0  0  0  0  0  0  0
   -3.2514    0.6294   -0.6270 C   0  0  0  0  0  0  0  0  0  0  0  0
   -4.4052    0.4363    0.3578 C   0  0  0  0  0  0  0  0  0  0  0  0
   -4.3570    0.8242    1.5277 O   0  0  0  0  0  0  0  0  0  0  0  0
   -5.6513   -0.2642   -0.1732 C   0  0  0  0  0  0  0  0  0  0  0  0
   -6.5680   -0.5648    0.8673 O   0  0  0  0  0  0  0  0  0  0  0  0
   -3.0249   -2.1910   -0.5256 H   0  0  0  0  0  0  0  0  0  0  0  0
   -2.9216   -1.5999    1.1405 H   0  0  0  0  0  0  0  0  0  0  0  0
   -1.5040   -2.2800    0.3657 H   0  0  0  0  0  0  0  0  0  0  0  0
   -1.1266    0.5375   -2.1824 H   0  0  0  0  0  0  0  0  0  0  0  0
   -1.7043   -1.0890   -2.3425 H   0  0  0  0  0  0  0  0  0  0  0  0
    0.1976   -1.9665   -1.0703 H   0  0  0  0  0  0  0  0  0  0  0  0
    0.9020   -0.0524   -3.0458 H   0  0  0  0  0  0  0  0  0  0  0  0
    1.1373    0.9380   -0.8626 H   0  0  0  0  0  0  0  0  0  0  0  0
    0.1567   -0.8991    1.3686 H   0  0  0  0  0  0  0  0  0  0  0  0
    0.3615    1.0989    2.8172 H   0  0  0  0  0  0  0  0  0  0  0  0
    1.0450    2.0239    1.4816 H   0  0  0  0  0  0  0  0  0  0  0  0
    2.2329   -0.4890    2.7548 H   0  0  0  0  0  0  0  0  0  0  0  0
    2.8088    1.1580    2.9403 H   0  0  0  0  0  0  0  0  0  0  0  0
    4.7984    1.4309    1.7466 H   0  0  0  0  0  0  0  0  0  0  0  0
    5.4029   -0.1986   -2.1597 H   0  0  0  0  0  0  0  0  0  0  0  0
    5.2204   -1.4187   -0.8859 H   0  0  0  0  0  0  0  0  0  0  0  0
    3.1461    0.5888   -1.9067 H   0  0  0  0  0  0  0  0  0  0  0  0
    3.1450   -1.1536   -2.1720 H   0  0  0  0  0  0  0  0  0  0  0  0
    3.5914   -2.3348    0.5929 H   0  0  0  0  0  0  0  0  0  0  0  0
    2.3021   -2.6986   -0.5494 H   0  0  0  0  0  0  0  0  0  0  0  0
    1.9135   -2.2548    1.1140 H   0  0  0  0  0  0  0  0  0  0  0  0
   -1.7398    0.4859    1.6591 H   0  0  0  0  0  0  0  0  0  0  0  0
   -1.3897    2.7102    1.0546 H   0  0  0  0  0  0  0  0  0  0  0  0
   -0.5882    2.3222   -0.4642 H   0  0  0  0  0  0  0  0  0  0  0  0
   -2.5640    2.4768   -1.5444 H   0  0  0  0  0  0  0  0  0  0  0  0
   -3.4305    2.7497   -0.0384 H   0  0  0  0  0  0  0  0  0  0  0  0
   -3.6544    0.4492   -1.6315 H   0  0  0  0  0  0  0  0  0  0  0  0
   -6.1446    0.3930   -0.8942 H   0  0  0  0  0  0  0  0  0  0  0  0
   -5.3669   -1.2007   -0.6588 H   0  0  0  0  0  0  0  0  0  0  0  0
   -6.3230    0.0087    1.6225 H   0  0  0  0  0  0  0  0  0  0  0  0
  1  2  1  0
  2  3  1  0
  3  4  1  0
  4  5  1  0
  4  6  1  0
  6  7  1  0
  7  8  1  0
  8  9  1  0
  9 10  1  0
 10 11  2  0
 11 12  1  0
 12 13  2  0
 12 14  1  0
 14 15  1  0
 15 16  1  0
 16 17  1  0
  7 18  1  0
 18 19  1  0
 19 20  1  0
 20 21  1  0
 21 22  1  0
 22 23  2  0
 22 24  1  0
 24 25  1  0
 21  2  1  0
 18  2  1  0
 16  6  1  0
 16 10  1  0
  1 26  1  0
  1 27  1  0
  1 28  1  0
  3 29  1  0
  3 30  1  0
  4 31  1  0
  5 32  1  0
  6 33  1  0
  7 34  1  0
  8 35  1  0
  8 36  1  0
  9 37  1  0
  9 38  1  0
 11 39  1  0
 14 40  1  0
 14 41  1  0
 15 42  1  0
 15 43  1  0
 17 44  1  0
 17 45  1  0
 17 46  1  0
 18 47  1  0
 19 48  1  0
 19 49  1  0
 20 50  1  0
 20 51  1  0
 21 52  1  0
 24 53  1  0
 24 54  1  0
 25 55  1  0
M  END
>  <Energy>  (3) 
96.31533115030471

>  <Real charge>  (3) 
0

>  <Mult>  (3) 
1

$$$$
mol_967 357
     RDKit          3D

 55 58  0  0  0  0  0  0  0  0999 V2000
   -2.3492   -0.3723    1.8885 C   0  0  0  0  0  0  0  0  0  0  0  0
   -2.0216   -0.1498    0.4015 C   0  0  0  0  0  0  0  0  0  0  0  0
   -1.3496    1.2300    0.1709 C   0  0  0  0  0  0  0  0  0  0  0  0
    0.1070    1.3199    0.6443 C   0  0  0  0  0  0  0  0  0  0  0  0
    0.1377    1.2805    2.0636 O   0  0  0  0  0  0  0  0  0  0  0  0
    0.9864    0.2036    0.0287 C   0  0  0  0  0  0  0  0  0  0  0  0
    0.3587   -1.1962    0.2759 C   0  0  0  0  0  0  0  0  0  0  0  0
    1.1805   -2.2943   -0.4211 C   0  0  0  0  0  0  0  0  0  0  0  0
    2.6360   -2.2774    0.0181 C   0  0  0  0  0  0  0  0  0  0  0  0
    3.2605   -0.9220   -0.2045 C   0  0  0  0  0  0  0  0  0  0  0  0
    4.4186   -0.8214   -0.8809 C   0  0  0  0  0  0  0  0  0  0  0  0
    5.1397    0.4663   -1.0000 C   0  0  0  0  0  0  0  0  0  0  0  0
    6.1689    0.5239   -1.6682 O   0  0  0  0  0  0  0  0  0  0  0  0
    4.6200    1.6410   -0.2148 C   0  0  0  0  0  0  0  0  0  0  0  0
    3.0998    1.6054   -0.1565 C   0  0  0  0  0  0  0  0  0  0  0  0
    2.5229    0.2746    0.4149 C   0  0  0  0  0  0  0  0  0  0  0  0
    2.7873    0.2312    1.9368 C   0  0  0  0  0  0  0  0  0  0  0  0
   -1.1274   -1.2834   -0.1498 C   0  0  0  0  0  0  0  0  0  0  0  0
   -1.3814   -1.2469   -1.6672 C   0  0  0  0  0  0  0  0  0  0  0  0
   -2.8089   -0.7323   -1.8495 C   0  0  0  0  0  0  0  0  0  0  0  0
   -3.3048   -0.3392   -0.4534 C   0  0  0  0  0  0  0  0  0  0  0  0
   -4.2408    0.8630   -0.4785 C   0  0  0  0  0  0  0  0  0  0  0  0
   -4.0430    1.8497   -1.1921 O   0  0  0  0  0  0  0  0  0  0  0  0
   -5.4684    0.7999    0.4237 C   0  0  0  0  0  0  0  0  0  0  0  0
   -6.1319    2.0527    0.4915 O   0  0  0  0  0  0  0  0  0  0  0  0
   -1.4529   -0.5064    2.4992 H   0  0  0  0  0  0  0  0  0  0  0  0
   -2.9562   -1.2738    2.0307 H   0  0  0  0  0  0  0  0  0  0  0  0
   -2.9115    0.4722    2.3001 H   0  0  0  0  0  0  0  0  0  0  0  0
   -1.9377    2.0047    0.6798 H   0  0  0  0  0  0  0  0  0  0  0  0
   -1.3635    1.4813   -0.8971 H   0  0  0  0  0  0  0  0  0  0  0  0
    0.4969    2.2984    0.3441 H   0  0  0  0  0  0  0  0  0  0  0  0
   -0.3585    2.0512    2.3914 H   0  0  0  0  0  0  0  0  0  0  0  0
    0.9496    0.3638   -1.0594 H   0  0  0  0  0  0  0  0  0  0  0  0
    0.3926   -1.3978    1.3545 H   0  0  0  0  0  0  0  0  0  0  0  0
    1.1404   -2.1716   -1.5105 H   0  0  0  0  0  0  0  0  0  0  0  0
    0.7499   -3.2778   -0.1966 H   0  0  0  0  0  0  0  0  0  0  0  0
    3.1790   -3.0597   -0.5263 H   0  0  0  0  0  0  0  0  0  0  0  0
    2.7061   -2.5379    1.0811 H   0  0  0  0  0  0  0  0  0  0  0  0
    4.9215   -1.6761   -1.3198 H   0  0  0  0  0  0  0  0  0  0  0  0
    4.9391    2.5622   -0.7148 H   0  0  0  0  0  0  0  0  0  0  0  0
    5.0662    1.6228    0.7845 H   0  0  0  0  0  0  0  0  0  0  0  0
    2.7207    1.7607   -1.1764 H   0  0  0  0  0  0  0  0  0  0  0  0
    2.7537    2.4616    0.4348 H   0  0  0  0  0  0  0  0  0  0  0  0
    2.2148   -0.5580    2.4342 H   0  0  0  0  0  0  0  0  0  0  0  0
    2.5402    1.1817    2.4204 H   0  0  0  0  0  0  0  0  0  0  0  0
    3.8452    0.0421    2.1568 H   0  0  0  0  0  0  0  0  0  0  0  0
   -1.5176   -2.2458    0.2155 H   0  0  0  0  0  0  0  0  0  0  0  0
   -1.2641   -2.2407   -2.1130 H   0  0  0  0  0  0  0  0  0  0  0  0
   -0.6890   -0.5779   -2.1878 H   0  0  0  0  0  0  0  0  0  0  0  0
   -3.4508   -1.5130   -2.2739 H   0  0  0  0  0  0  0  0  0  0  0  0
   -2.8202    0.1020   -2.5595 H   0  0  0  0  0  0  0  0  0  0  0  0
   -3.8832   -1.1930   -0.0725 H   0  0  0  0  0  0  0  0  0  0  0  0
   -6.1629    0.0577    0.0212 H   0  0  0  0  0  0  0  0  0  0  0  0
   -5.1721    0.5176    1.4360 H   0  0  0  0  0  0  0  0  0  0  0  0
   -5.8726    2.5430   -0.3154 H   0  0  0  0  0  0  0  0  0  0  0  0
  1  2  1  0
  2  3  1  0
  3  4  1  0
  4  5  1  0
  4  6  1  0
  6  7  1  0
  7  8  1  0
  8  9  1  0
  9 10  1  0
 10 11  2  0
 11 12  1  0
 12 13  2  0
 12 14  1  0
 14 15  1  0
 15 16  1  0
 16 17  1  0
  7 18  1  0
 18 19  1  0
 19 20  1  0
 20 21  1  0
 21 22  1  0
 22 23  2  0
 22 24  1  0
 24 25  1  0
 21  2  1  0
 18  2  1  0
 16  6  1  0
 16 10  1  0
  1 26  1  0
  1 27  1  0
  1 28  1  0
  3 29  1  0
  3 30  1  0
  4 31  1  0
  5 32  1  0
  6 33  1  0
  7 34  1  0
  8 35  1  0
  8 36  1  0
  9 37  1  0
  9 38  1  0
 11 39  1  0
 14 40  1  0
 14 41  1  0
 15 42  1  0
 15 43  1  0
 17 44  1  0
 17 45  1  0
 17 46  1  0
 18 47  1  0
 19 48  1  0
 19 49  1  0
 20 50  1  0
 20 51  1  0
 21 52  1  0
 24 53  1  0
 24 54  1  0
 25 55  1  0
M  END
>  <Energy>  (4) 
96.38360983074658

>  <Real charge>  (4) 
0

>  <Mult>  (4) 
1

$$$$
mol_967 391
     RDKit          3D

 55 58  0  0  0  0  0  0  0  0999 V2000
    2.2875    0.7211   -1.9502 C   0  0  0  0  0  0  0  0  0  0  0  0
    2.0255    0.2078   -0.5244 C   0  0  0  0  0  0  0  0  0  0  0  0
    1.3510   -1.1799   -0.5656 C   0  0  0  0  0  0  0  0  0  0  0  0
   -0.1155   -1.1531   -1.0206 C   0  0  0  0  0  0  0  0  0  0  0  0
   -0.5932   -2.4936   -0.9648 O   0  0  0  0  0  0  0  0  0  0  0  0
   -0.9961   -0.2048   -0.1655 C   0  0  0  0  0  0  0  0  0  0  0  0
   -0.3402    1.2058   -0.1313 C   0  0  0  0  0  0  0  0  0  0  0  0
   -1.1377    2.1642    0.7634 C   0  0  0  0  0  0  0  0  0  0  0  0
   -2.5697    2.3006    0.2759 C   0  0  0  0  0  0  0  0  0  0  0  0
   -3.2504    0.9564    0.2122 C   0  0  0  0  0  0  0  0  0  0  0  0
   -4.4358    0.7975    0.8279 C   0  0  0  0  0  0  0  0  0  0  0  0
   -5.2177   -0.4512    0.7060 C   0  0  0  0  0  0  0  0  0  0  0  0
   -6.2643   -0.5746    1.3366 O   0  0  0  0  0  0  0  0  0  0  0  0
   -4.7308   -1.4874   -0.2662 C   0  0  0  0  0  0  0  0  0  0  0  0
   -3.2087   -1.5232   -0.2857 C   0  0  0  0  0  0  0  0  0  0  0  0
   -2.5335   -0.1488   -0.5863 C   0  0  0  0  0  0  0  0  0  0  0  0
   -2.7028    0.1623   -2.0911 C   0  0  0  0  0  0  0  0  0  0  0  0
    1.1471    1.1947    0.2775 C   0  0  0  0  0  0  0  0  0  0  0  0
    1.4276    0.8351    1.7454 C   0  0  0  0  0  0  0  0  0  0  0  0
    2.8455    0.2639    1.7736 C   0  0  0  0  0  0  0  0  0  0  0  0
    3.3310    0.2432    0.3191 C   0  0  0  0  0  0  0  0  0  0  0  0
    4.3668   -0.8481    0.0586 C   0  0  0  0  0  0  0  0  0  0  0  0
    4.3109   -1.6171   -0.9031 O   0  0  0  0  0  0  0  0  0  0  0  0
    5.5559   -0.9184    1.0149 C   0  0  0  0  0  0  0  0  0  0  0  0
    6.5732   -1.7784    0.5234 O   0  0  0  0  0  0  0  0  0  0  0  0
    1.3638    0.8231   -2.5275 H   0  0  0  0  0  0  0  0  0  0  0  0
    2.9461    0.0422   -2.5016 H   0  0  0  0  0  0  0  0  0  0  0  0
    2.7683    1.7057   -1.9352 H   0  0  0  0  0  0  0  0  0  0  0  0
    1.8969   -1.8552   -1.2360 H   0  0  0  0  0  0  0  0  0  0  0  0
    1.4038   -1.6659    0.4175 H   0  0  0  0  0  0  0  0  0  0  0  0
   -0.1531   -0.8502   -2.0714 H   0  0  0  0  0  0  0  0  0  0  0  0
   -0.4517   -2.8341   -0.0649 H   0  0  0  0  0  0  0  0  0  0  0  0
   -0.9860   -0.5991    0.8613 H   0  0  0  0  0  0  0  0  0  0  0  0
   -0.3735    1.6134   -1.1505 H   0  0  0  0  0  0  0  0  0  0  0  0
   -0.6661    3.1545    0.7639 H   0  0  0  0  0  0  0  0  0  0  0  0
   -1.1396    1.8110    1.8021 H   0  0  0  0  0  0  0  0  0  0  0  0
   -2.5846    2.7618   -0.7190 H   0  0  0  0  0  0  0  0  0  0  0  0
   -3.1047    2.9894    0.9413 H   0  0  0  0  0  0  0  0  0  0  0  0
   -4.9147    1.5855    1.3991 H   0  0  0  0  0  0  0  0  0  0  0  0
   -5.1092   -2.4661    0.0493 H   0  0  0  0  0  0  0  0  0  0  0  0
   -5.1446   -1.2649   -1.2548 H   0  0  0  0  0  0  0  0  0  0  0  0
   -2.9177   -2.2713   -1.0300 H   0  0  0  0  0  0  0  0  0  0  0  0
   -2.8647   -1.8924    0.6903 H   0  0  0  0  0  0  0  0  0  0  0  0
   -3.7540    0.3335   -2.3510 H   0  0  0  0  0  0  0  0  0  0  0  0
   -2.3513   -0.6666   -2.7146 H   0  0  0  0  0  0  0  0  0  0  0  0
   -2.1516    1.0576   -2.3948 H   0  0  0  0  0  0  0  0  0  0  0  0
    1.5366    2.2125    0.1199 H   0  0  0  0  0  0  0  0  0  0  0  0
    1.3470    1.7175    2.3895 H   0  0  0  0  0  0  0  0  0  0  0  0
    0.7271    0.0887    2.1333 H   0  0  0  0  0  0  0  0  0  0  0  0
    3.5039    0.8820    2.3944 H   0  0  0  0  0  0  0  0  0  0  0  0
    2.8359   -0.7385    2.2174 H   0  0  0  0  0  0  0  0  0  0  0  0
    3.8499    1.1931    0.1225 H   0  0  0  0  0  0  0  0  0  0  0  0
    5.2211   -1.3015    1.9817 H   0  0  0  0  0  0  0  0  0  0  0  0
    5.9837    0.0801    1.1359 H   0  0  0  0  0  0  0  0  0  0  0  0
    6.1573   -2.3199   -0.1793 H   0  0  0  0  0  0  0  0  0  0  0  0
  1  2  1  0
  2  3  1  0
  3  4  1  0
  4  5  1  0
  4  6  1  0
  6  7  1  0
  7  8  1  0
  8  9  1  0
  9 10  1  0
 10 11  2  0
 11 12  1  0
 12 13  2  0
 12 14  1  0
 14 15  1  0
 15 16  1  0
 16 17  1  0
  7 18  1  0
 18 19  1  0
 19 20  1  0
 20 21  1  0
 21 22  1  0
 22 23  2  0
 22 24  1  0
 24 25  1  0
 21  2  1  0
 18  2  1  0
 16  6  1  0
 16 10  1  0
  1 26  1  0
  1 27  1  0
  1 28  1  0
  3 29  1  0
  3 30  1  0
  4 31  1  0
  5 32  1  0
  6 33  1  0
  7 34  1  0
  8 35  1  0
  8 36  1  0
  9 37  1  0
  9 38  1  0
 11 39  1  0
 14 40  1  0
 14 41  1  0
 15 42  1  0
 15 43  1  0
 17 44  1  0
 17 45  1  0
 17 46  1  0
 18 47  1  0
 19 48  1  0
 19 49  1  0
 20 50  1  0
 20 51  1  0
 21 52  1  0
 24 53  1  0
 24 54  1  0
 25 55  1  0
M  END
>  <Energy>  (5) 
96.42479176464069

>  <Real charge>  (5) 
0

>  <Mult>  (5) 
1

$$$$
mol_967 453
     RDKit          3D

 55 58  0  0  0  0  0  0  0  0999 V2000
    2.3925   -1.0776   -1.5708 C   0  0  0  0  0  0  0  0  0  0  0  0
    2.0220   -0.1805   -0.3760 C   0  0  0  0  0  0  0  0  0  0  0  0
    1.3726   -0.9980    0.7735 C   0  0  0  0  0  0  0  0  0  0  0  0
   -0.0715   -1.4474    0.5076 C   0  0  0  0  0  0  0  0  0  0  0  0
   -0.0759   -2.4376   -0.5106 O   0  0  0  0  0  0  0  0  0  0  0  0
   -0.9916   -0.2596    0.1368 C   0  0  0  0  0  0  0  0  0  0  0  0
   -0.3923    0.5484   -1.0466 C   0  0  0  0  0  0  0  0  0  0  0  0
   -1.2561    1.7818   -1.3625 C   0  0  0  0  0  0  0  0  0  0  0  0
   -2.7012    1.4050   -1.6475 C   0  0  0  0  0  0  0  0  0  0  0  0
   -3.2956    0.6145   -0.5080 C   0  0  0  0  0  0  0  0  0  0  0  0
   -4.4622    1.0005    0.0386 C   0  0  0  0  0  0  0  0  0  0  0  0
   -5.1519    0.1778    1.0584 C   0  0  0  0  0  0  0  0  0  0  0  0
   -6.1864    0.5942    1.5734 O   0  0  0  0  0  0  0  0  0  0  0  0
   -4.5926   -1.1875    1.3585 C   0  0  0  0  0  0  0  0  0  0  0  0
   -3.0729   -1.1610    1.2855 C   0  0  0  0  0  0  0  0  0  0  0  0
   -2.5175   -0.6365   -0.0736 C   0  0  0  0  0  0  0  0  0  0  0  0
   -2.7529   -1.7145   -1.1554 C   0  0  0  0  0  0  0  0  0  0  0  0
    1.0794    0.9675   -0.8115 C   0  0  0  0  0  0  0  0  0  0  0  0
    1.2903    2.0515    0.2621 C   0  0  0  0  0  0  0  0  0  0  0  0
    2.6968    1.8386    0.8191 C   0  0  0  0  0  0  0  0  0  0  0  0
    3.2718    0.6299    0.0767 C   0  0  0  0  0  0  0  0  0  0  0  0
    4.3317   -0.1110    0.8893 C   0  0  0  0  0  0  0  0  0  0  0  0
    4.3310   -1.3335    1.0495 O   0  0  0  0  0  0  0  0  0  0  0  0
    5.4732    0.7262    1.4636 C   0  0  0  0  0  0  0  0  0  0  0  0
    6.5125   -0.0906    1.9825 O   0  0  0  0  0  0  0  0  0  0  0  0
    1.5135   -1.4809   -2.0794 H   0  0  0  0  0  0  0  0  0  0  0  0
    3.0157   -1.9210   -1.2563 H   0  0  0  0  0  0  0  0  0  0  0  0
    2.9559   -0.5182   -2.3266 H   0  0  0  0  0  0  0  0  0  0  0  0
    1.3758   -0.4126    1.7011 H   0  0  0  0  0  0  0  0  0  0  0  0
    1.9746   -1.8922    0.9716 H   0  0  0  0  0  0  0  0  0  0  0  0
   -0.4434   -1.9282    1.4186 H   0  0  0  0  0  0  0  0  0  0  0  0
    0.5347   -3.1463   -0.2401 H   0  0  0  0  0  0  0  0  0  0  0  0
   -0.9722    0.4143    1.0064 H   0  0  0  0  0  0  0  0  0  0  0  0
   -0.4021   -0.0941   -1.9368 H   0  0  0  0  0  0  0  0  0  0  0  0
   -1.2368    2.4904   -0.5253 H   0  0  0  0  0  0  0  0  0  0  0  0
   -0.8449    2.3084   -2.2324 H   0  0  0  0  0  0  0  0  0  0  0  0
   -2.7557    0.8111   -2.5679 H   0  0  0  0  0  0  0  0  0  0  0  0
   -3.2748    2.3203   -1.8383 H   0  0  0  0  0  0  0  0  0  0  0  0
   -4.9940    1.8922   -0.2744 H   0  0  0  0  0  0  0  0  0  0  0  0
   -5.0219   -1.9076    0.6549 H   0  0  0  0  0  0  0  0  0  0  0  0
   -4.8991   -1.4741    2.3706 H   0  0  0  0  0  0  0  0  0  0  0  0
   -2.6961   -2.1697    1.4930 H   0  0  0  0  0  0  0  0  0  0  0  0
   -2.7085   -0.5212    2.1015 H   0  0  0  0  0  0  0  0  0  0  0  0
   -2.4735   -2.7127   -0.8035 H   0  0  0  0  0  0  0  0  0  0  0  0
   -2.1901   -1.5111   -2.0719 H   0  0  0  0  0  0  0  0  0  0  0  0
   -3.8106   -1.7756   -1.4399 H   0  0  0  0  0  0  0  0  0  0  0  0
    1.4541    1.3841   -1.7593 H   0  0  0  0  0  0  0  0  0  0  0  0
    0.5652    1.9817    1.0789 H   0  0  0  0  0  0  0  0  0  0  0  0
    1.1898    3.0530   -0.1707 H   0  0  0  0  0  0  0  0  0  0  0  0
    2.6501    1.6692    1.9014 H   0  0  0  0  0  0  0  0  0  0  0  0
    3.3190    2.7269    0.6623 H   0  0  0  0  0  0  0  0  0  0  0  0
    3.7939    1.0025   -0.8169 H   0  0  0  0  0  0  0  0  0  0  0  0
    5.8950    1.3538    0.6744 H   0  0  0  0  0  0  0  0  0  0  0  0
    5.0920    1.3510    2.2748 H   0  0  0  0  0  0  0  0  0  0  0  0
    6.1411   -0.9944    2.0519 H   0  0  0  0  0  0  0  0  0  0  0  0
  1  2  1  0
  2  3  1  0
  3  4  1  0
  4  5  1  0
  4  6  1  0
  6  7  1  0
  7  8  1  0
  8  9  1  0
  9 10  1  0
 10 11  2  0
 11 12  1  0
 12 13  2  0
 12 14  1  0
 14 15  1  0
 15 16  1  0
 16 17  1  0
  7 18  1  0
 18 19  1  0
 19 20  1  0
 20 21  1  0
 21 22  1  0
 22 23  2  0
 22 24  1  0
 24 25  1  0
 21  2  1  0
 18  2  1  0
 16  6  1  0
 16 10  1  0
  1 26  1  0
  1 27  1  0
  1 28  1  0
  3 29  1  0
  3 30  1  0
  4 31  1  0
  5 32  1  0
  6 33  1  0
  7 34  1  0
  8 35  1  0
  8 36  1  0
  9 37  1  0
  9 38  1  0
 11 39  1  0
 14 40  1  0
 14 41  1  0
 15 42  1  0
 15 43  1  0
 17 44  1  0
 17 45  1  0
 17 46  1  0
 18 47  1  0
 19 48  1  0
 19 49  1  0
 20 50  1  0
 20 51  1  0
 21 52  1  0
 24 53  1  0
 24 54  1  0
 25 55  1  0
M  END
>  <Energy>  (6) 
96.46460990199866

>  <Real charge>  (6) 
0

>  <Mult>  (6) 
1

$$$$
