mol_791 276
     RDKit          3D

 34 37  0  0  0  0  0  0  0  0999 V2000
    1.2964    1.2516   -1.3464 C   0  0  0  0  0  0  0  0  0  0  0  0
    2.5700    1.4594   -1.8906 C   0  0  0  0  0  0  0  0  0  0  0  0
    3.6507    0.7531   -1.3888 C   0  0  0  0  0  0  0  0  0  0  0  0
    4.8914    0.9640   -1.9146 O   0  0  0  0  0  0  0  0  0  0  0  0
    3.4778   -0.1460   -0.3461 C   0  0  0  0  0  0  0  0  0  0  0  0
    4.5814   -0.7983    0.1400 O   0  0  0  0  0  0  0  0  0  0  0  0
    2.2114   -0.3685    0.1978 C   0  0  0  0  0  0  0  0  0  0  0  0
    2.1763   -1.2319    1.2728 O   0  0  0  0  0  0  0  0  0  0  0  0
    0.8596   -1.6551    1.6805 C   0  0  0  0  0  0  0  0  0  0  0  0
   -0.1423   -0.4989    1.7008 C   0  0  0  0  0  0  0  0  0  0  0  0
    0.2592    0.5086    2.6330 O   0  0  0  0  0  0  0  0  0  0  0  0
   -1.5825   -0.9271    2.0243 C   0  0  0  0  0  0  0  0  0  0  0  0
   -2.3800   -0.3570    0.8894 C   0  0  0  0  0  0  0  0  0  0  0  0
   -3.7100   -0.2924    0.7563 C   0  0  0  0  0  0  0  0  0  0  0  0
   -4.2757    0.2600   -0.5013 C   0  0  0  0  0  0  0  0  0  0  0  0
   -5.4859    0.3796   -0.6703 O   0  0  0  0  0  0  0  0  0  0  0  0
   -3.3261    0.6322   -1.6042 C   0  0  0  0  0  0  0  0  0  0  0  0
   -3.8655    1.0359   -2.8108 O   0  0  0  0  0  0  0  0  0  0  0  0
   -1.9999    0.5554   -1.4188 C   0  0  0  0  0  0  0  0  0  0  0  0
   -1.4805    0.1506   -0.1342 C   0  0  0  0  0  0  0  0  0  0  0  0
   -0.2134    0.0797    0.3089 C   0  0  0  0  0  0  0  0  0  0  0  0
    1.0932    0.3195   -0.3164 C   0  0  0  0  0  0  0  0  0  0  0  0
    0.4810    1.8611   -1.7241 H   0  0  0  0  0  0  0  0  0  0  0  0
    2.7160    2.1807   -2.6899 H   0  0  0  0  0  0  0  0  0  0  0  0
    5.4821    0.3744   -1.4038 H   0  0  0  0  0  0  0  0  0  0  0  0
    4.2453   -1.3642    0.8632 H   0  0  0  0  0  0  0  0  0  0  0  0
    0.5416   -2.4701    1.0177 H   0  0  0  0  0  0  0  0  0  0  0  0
    0.9707   -2.0692    2.6888 H   0  0  0  0  0  0  0  0  0  0  0  0
    1.1520    0.8029    2.3781 H   0  0  0  0  0  0  0  0  0  0  0  0
   -1.9265   -0.5331    2.9869 H   0  0  0  0  0  0  0  0  0  0  0  0
   -1.6866   -2.0185    2.0290 H   0  0  0  0  0  0  0  0  0  0  0  0
   -4.4079   -0.6450    1.5035 H   0  0  0  0  0  0  0  0  0  0  0  0
   -4.8363    1.0175   -2.6699 H   0  0  0  0  0  0  0  0  0  0  0  0
   -1.3369    0.7891   -2.2408 H   0  0  0  0  0  0  0  0  0  0  0  0
  1  2  2  0
  2  3  1  0
  3  4  1  0
  3  5  2  0
  5  6  1  0
  5  7  1  0
  7  8  1  0
  8  9  1  0
  9 10  1  0
 10 11  1  0
 10 12  1  0
 12 13  1  0
 13 14  2  0
 14 15  1  0
 15 16  2  0
 15 17  1  0
 17 18  1  0
 17 19  2  0
 19 20  1  0
 20 21  2  0
 21 22  1  0
 22  1  1  0
 22  7  2  0
 21 10  1  0
 20 13  1  0
  1 23  1  0
  2 24  1  0
  4 25  1  0
  6 26  1  0
  9 27  1  0
  9 28  1  0
 11 29  1  0
 12 30  1  0
 12 31  1  0
 14 32  1  0
 18 33  1  0
 19 34  1  0
M  END
>  <Energy>  (1) 
91.12677323790129

>  <Real charge>  (1) 
0

>  <Mult>  (1) 
1

$$$$
