mol_645 354
     RDKit          3D

 38 41  0  0  0  0  0  0  0  0999 V2000
   -1.5414    5.3253    0.6500 O   0  0  0  0  0  0  0  0  0  0  0  0
   -1.2183    4.0014    0.6414 C   0  0  0  0  0  0  0  0  0  0  0  0
   -0.3051    3.4716    1.5421 C   0  0  0  0  0  0  0  0  0  0  0  0
   -0.0073    2.1073    1.4920 C   0  0  0  0  0  0  0  0  0  0  0  0
   -0.6119    1.2536    0.5420 C   0  0  0  0  0  0  0  0  0  0  0  0
   -1.5386    1.8243   -0.3490 C   0  0  0  0  0  0  0  0  0  0  0  0
   -1.8361    3.1899   -0.2996 C   0  0  0  0  0  0  0  0  0  0  0  0
   -0.2345   -0.2387    0.5341 C   0  0  0  0  0  0  0  0  0  0  0  0
   -0.5957   -0.7039    1.8733 O   0  0  0  0  0  0  0  0  0  0  0  0
   -1.5851   -1.6379    1.8641 C   0  0  0  0  0  0  0  0  0  0  0  0
   -2.0994   -2.1589    2.8329 O   0  0  0  0  0  0  0  0  0  0  0  0
   -1.8737   -1.9267    0.4710 C   0  0  0  0  0  0  0  0  0  0  0  0
   -2.7636   -2.8588   -0.0371 C   0  0  0  0  0  0  0  0  0  0  0  0
   -2.8341   -2.9972   -1.4226 C   0  0  0  0  0  0  0  0  0  0  0  0
   -2.0159   -2.2167   -2.2546 C   0  0  0  0  0  0  0  0  0  0  0  0
   -1.1252   -1.2845   -1.7108 C   0  0  0  0  0  0  0  0  0  0  0  0
   -1.0720   -1.1376   -0.3289 C   0  0  0  0  0  0  0  0  0  0  0  0
    1.2676   -0.4806    0.2971 C   0  0  0  0  0  0  0  0  0  0  0  0
    1.9909   -1.4188    1.0597 C   0  0  0  0  0  0  0  0  0  0  0  0
    3.3488   -1.6517    0.8201 C   0  0  0  0  0  0  0  0  0  0  0  0
    3.9960   -0.9519   -0.1905 C   0  0  0  0  0  0  0  0  0  0  0  0
    5.3180   -1.1482   -0.4579 O   0  0  0  0  0  0  0  0  0  0  0  0
    3.3095   -0.0268   -0.9640 C   0  0  0  0  0  0  0  0  0  0  0  0
    1.9534    0.2061   -0.7254 C   0  0  0  0  0  0  0  0  0  0  0  0
   -1.0556    5.7570    1.3719 H   0  0  0  0  0  0  0  0  0  0  0  0
    0.1817    4.0937    2.2863 H   0  0  0  0  0  0  0  0  0  0  0  0
    0.7072    1.7020    2.2085 H   0  0  0  0  0  0  0  0  0  0  0  0
   -2.0561    1.2275   -1.0947 H   0  0  0  0  0  0  0  0  0  0  0  0
   -2.5548    3.6176   -0.9936 H   0  0  0  0  0  0  0  0  0  0  0  0
   -3.3756   -3.4647    0.6241 H   0  0  0  0  0  0  0  0  0  0  0  0
   -3.5187   -3.7197   -1.8617 H   0  0  0  0  0  0  0  0  0  0  0  0
   -2.0732   -2.3425   -3.3343 H   0  0  0  0  0  0  0  0  0  0  0  0
   -0.4928   -0.6917   -2.3660 H   0  0  0  0  0  0  0  0  0  0  0  0
    1.5046   -1.9813    1.8550 H   0  0  0  0  0  0  0  0  0  0  0  0
    3.8764   -2.3791    1.4292 H   0  0  0  0  0  0  0  0  0  0  0  0
    5.6644   -1.8106    0.1623 H   0  0  0  0  0  0  0  0  0  0  0  0
    3.8277    0.5137   -1.7512 H   0  0  0  0  0  0  0  0  0  0  0  0
    1.4383    0.9374   -1.3457 H   0  0  0  0  0  0  0  0  0  0  0  0
  1  2  1  0
  2  3  2  0
  3  4  1  0
  4  5  2  0
  5  6  1  0
  6  7  2  0
  5  8  1  0
  8  9  1  0
  9 10  1  0
 10 11  2  0
 10 12  1  0
 12 13  2  0
 13 14  1  0
 14 15  2  0
 15 16  1  0
 16 17  2  0
  8 18  1  0
 18 19  2  0
 19 20  1  0
 20 21  2  0
 21 22  1  0
 21 23  1  0
 23 24  2  0
  7  2  1  0
 17  8  1  0
 17 12  1  0
 24 18  1  0
  1 25  1  0
  3 26  1  0
  4 27  1  0
  6 28  1  0
  7 29  1  0
 13 30  1  0
 14 31  1  0
 15 32  1  0
 16 33  1  0
 19 34  1  0
 20 35  1  0
 22 36  1  0
 23 37  1  0
 24 38  1  0
M  END
>  <Energy>  (1) 
69.29420544270646

>  <Real charge>  (1) 
0

>  <Mult>  (1) 
1

$$$$
mol_645 49
     RDKit          3D

 38 41  0  0  0  0  0  0  0  0999 V2000
   -2.5095    4.1785   -2.6426 O   0  0  0  0  0  0  0  0  0  0  0  0
   -1.9520    3.2082   -1.8649 C   0  0  0  0  0  0  0  0  0  0  0  0
   -1.0312    3.5137   -0.8727 C   0  0  0  0  0  0  0  0  0  0  0  0
   -0.4879    2.4822   -0.1024 C   0  0  0  0  0  0  0  0  0  0  0  0
   -0.8526    1.1331   -0.3118 C   0  0  0  0  0  0  0  0  0  0  0  0
   -1.7943    0.8624   -1.3208 C   0  0  0  0  0  0  0  0  0  0  0  0
   -2.3368    1.8944   -2.0930 C   0  0  0  0  0  0  0  0  0  0  0  0
   -0.2089    0.0431    0.5647 C   0  0  0  0  0  0  0  0  0  0  0  0
   -0.5591    0.4322    1.9305 O   0  0  0  0  0  0  0  0  0  0  0  0
   -1.3647   -0.4711    2.5519 C   0  0  0  0  0  0  0  0  0  0  0  0
   -1.8415   -0.3738    3.6645 O   0  0  0  0  0  0  0  0  0  0  0  0
   -1.5089   -1.5949    1.6443 C   0  0  0  0  0  0  0  0  0  0  0  0
   -2.1827   -2.7849    1.8658 C   0  0  0  0  0  0  0  0  0  0  0  0
   -2.1407   -3.7487    0.8592 C   0  0  0  0  0  0  0  0  0  0  0  0
   -1.4267   -3.5053   -0.3247 C   0  0  0  0  0  0  0  0  0  0  0  0
   -0.7544   -2.2932   -0.5180 C   0  0  0  0  0  0  0  0  0  0  0  0
   -0.8149   -1.3280    0.4814 C   0  0  0  0  0  0  0  0  0  0  0  0
    1.3232   -0.0144    0.4239 C   0  0  0  0  0  0  0  0  0  0  0  0
    2.1585   -0.1557    1.5485 C   0  0  0  0  0  0  0  0  0  0  0  0
    3.5463   -0.2325    1.4073 C   0  0  0  0  0  0  0  0  0  0  0  0
    4.1164   -0.1749    0.1433 C   0  0  0  0  0  0  0  0  0  0  0  0
    5.4741   -0.2522    0.0540 O   0  0  0  0  0  0  0  0  0  0  0  0
    3.3213   -0.0441   -0.9881 C   0  0  0  0  0  0  0  0  0  0  0  0
    1.9325    0.0315   -0.8476 C   0  0  0  0  0  0  0  0  0  0  0  0
   -2.1812    5.0419   -2.3418 H   0  0  0  0  0  0  0  0  0  0  0  0
   -0.7251    4.5370   -0.6801 H   0  0  0  0  0  0  0  0  0  0  0  0
    0.2301    2.7351    0.6780 H   0  0  0  0  0  0  0  0  0  0  0  0
   -2.1356   -0.1480   -1.5273 H   0  0  0  0  0  0  0  0  0  0  0  0
   -3.0651    1.6715   -2.8683 H   0  0  0  0  0  0  0  0  0  0  0  0
   -2.7146   -2.9604    2.7958 H   0  0  0  0  0  0  0  0  0  0  0  0
   -2.6545   -4.6979    0.9953 H   0  0  0  0  0  0  0  0  0  0  0  0
   -1.3928   -4.2710   -1.0975 H   0  0  0  0  0  0  0  0  0  0  0  0
   -0.1996   -2.1209   -1.4359 H   0  0  0  0  0  0  0  0  0  0  0  0
    1.7406   -0.2056    2.5524 H   0  0  0  0  0  0  0  0  0  0  0  0
    4.1790   -0.3372    2.2845 H   0  0  0  0  0  0  0  0  0  0  0  0
    5.7290   -0.1853   -0.8806 H   0  0  0  0  0  0  0  0  0  0  0  0
    3.7579    0.0010   -1.9808 H   0  0  0  0  0  0  0  0  0  0  0  0
    1.3266    0.1339   -1.7465 H   0  0  0  0  0  0  0  0  0  0  0  0
  1  2  1  0
  2  3  2  0
  3  4  1  0
  4  5  2  0
  5  6  1  0
  6  7  2  0
  5  8  1  0
  8  9  1  0
  9 10  1  0
 10 11  2  0
 10 12  1  0
 12 13  2  0
 13 14  1  0
 14 15  2  0
 15 16  1  0
 16 17  2  0
  8 18  1  0
 18 19  2  0
 19 20  1  0
 20 21  2  0
 21 22  1  0
 21 23  1  0
 23 24  2  0
  7  2  1  0
 17  8  1  0
 17 12  1  0
 24 18  1  0
  1 25  1  0
  3 26  1  0
  4 27  1  0
  6 28  1  0
  7 29  1  0
 13 30  1  0
 14 31  1  0
 15 32  1  0
 16 33  1  0
 19 34  1  0
 20 35  1  0
 22 36  1  0
 23 37  1  0
 24 38  1  0
M  END
>  <Energy>  (2) 
69.62173898027812

>  <Real charge>  (2) 
0

>  <Mult>  (2) 
1

$$$$
mol_645 90
     RDKit          3D

 38 41  0  0  0  0  0  0  0  0999 V2000
    3.7560    4.0067   -0.9888 O   0  0  0  0  0  0  0  0  0  0  0  0
    2.8675    3.0405   -0.6226 C   0  0  0  0  0  0  0  0  0  0  0  0
    3.2434    1.7065   -0.5288 C   0  0  0  0  0  0  0  0  0  0  0  0
    2.2996    0.7445   -0.1494 C   0  0  0  0  0  0  0  0  0  0  0  0
    0.9687    1.1034    0.1356 C   0  0  0  0  0  0  0  0  0  0  0  0
    0.6270    2.4703    0.0414 C   0  0  0  0  0  0  0  0  0  0  0  0
    1.5674    3.4295   -0.3392 C   0  0  0  0  0  0  0  0  0  0  0  0
   -0.1122    0.0917    0.5579 C   0  0  0  0  0  0  0  0  0  0  0  0
   -0.4847    0.5124    1.9081 O   0  0  0  0  0  0  0  0  0  0  0  0
   -0.1965   -0.4207    2.8555 C   0  0  0  0  0  0  0  0  0  0  0  0
   -0.3670   -0.3164    4.0532 O   0  0  0  0  0  0  0  0  0  0  0  0
    0.3149   -1.5844    2.1542 C   0  0  0  0  0  0  0  0  0  0  0  0
    0.6880   -2.8053    2.6919 C   0  0  0  0  0  0  0  0  0  0  0  0
    1.1083   -3.7994    1.8092 C   0  0  0  0  0  0  0  0  0  0  0  0
    1.1362   -3.5537    0.4273 C   0  0  0  0  0  0  0  0  0  0  0  0
    0.7518   -2.3098   -0.0858 C   0  0  0  0  0  0  0  0  0  0  0  0
    0.3492   -1.3166    0.8006 C   0  0  0  0  0  0  0  0  0  0  0  0
   -1.3565    0.1164   -0.3492 C   0  0  0  0  0  0  0  0  0  0  0  0
   -1.2223    0.1227   -1.7526 C   0  0  0  0  0  0  0  0  0  0  0  0
   -2.3453    0.1173   -2.5826 C   0  0  0  0  0  0  0  0  0  0  0  0
   -3.6151    0.0999   -2.0233 C   0  0  0  0  0  0  0  0  0  0  0  0
   -4.6829    0.0951   -2.8703 O   0  0  0  0  0  0  0  0  0  0  0  0
   -3.7830    0.0867   -0.6444 C   0  0  0  0  0  0  0  0  0  0  0  0
   -2.6589    0.0918    0.1874 C   0  0  0  0  0  0  0  0  0  0  0  0
    4.6253    3.5959   -1.1232 H   0  0  0  0  0  0  0  0  0  0  0  0
    4.2614    1.3946   -0.7410 H   0  0  0  0  0  0  0  0  0  0  0  0
    2.6375   -0.2858   -0.0752 H   0  0  0  0  0  0  0  0  0  0  0  0
   -0.3869    2.7975    0.2703 H   0  0  0  0  0  0  0  0  0  0  0  0
    1.2838    4.4760   -0.4079 H   0  0  0  0  0  0  0  0  0  0  0  0
    0.6437   -2.9806    3.7625 H   0  0  0  0  0  0  0  0  0  0  0  0
    1.4063   -4.7735    2.1912 H   0  0  0  0  0  0  0  0  0  0  0  0
    1.4554   -4.3424   -0.2515 H   0  0  0  0  0  0  0  0  0  0  0  0
    0.7710   -2.1351   -1.1579 H   0  0  0  0  0  0  0  0  0  0  0  0
   -0.2376    0.1396   -2.2161 H   0  0  0  0  0  0  0  0  0  0  0  0
   -2.2282    0.1293   -3.6627 H   0  0  0  0  0  0  0  0  0  0  0  0
   -5.4975    0.1047   -2.3413 H   0  0  0  0  0  0  0  0  0  0  0  0
   -4.7721    0.0715   -0.1971 H   0  0  0  0  0  0  0  0  0  0  0  0
   -2.8158    0.0792    1.2647 H   0  0  0  0  0  0  0  0  0  0  0  0
  1  2  1  0
  2  3  2  0
  3  4  1  0
  4  5  2  0
  5  6  1  0
  6  7  2  0
  5  8  1  0
  8  9  1  0
  9 10  1  0
 10 11  2  0
 10 12  1  0
 12 13  2  0
 13 14  1  0
 14 15  2  0
 15 16  1  0
 16 17  2  0
  8 18  1  0
 18 19  2  0
 19 20  1  0
 20 21  2  0
 21 22  1  0
 21 23  1  0
 23 24  2  0
  7  2  1  0
 17  8  1  0
 17 12  1  0
 24 18  1  0
  1 25  1  0
  3 26  1  0
  4 27  1  0
  6 28  1  0
  7 29  1  0
 13 30  1  0
 14 31  1  0
 15 32  1  0
 16 33  1  0
 19 34  1  0
 20 35  1  0
 22 36  1  0
 23 37  1  0
 24 38  1  0
M  END
>  <Energy>  (3) 
69.81376164724408

>  <Real charge>  (3) 
0

>  <Mult>  (3) 
1

$$$$
mol_645 129
     RDKit          3D

 38 41  0  0  0  0  0  0  0  0999 V2000
    4.5585   -1.9978   -2.4637 O   0  0  0  0  0  0  0  0  0  0  0  0
    3.3862   -1.6324   -1.8727 C   0  0  0  0  0  0  0  0  0  0  0  0
    2.3606   -1.1835   -2.6904 C   0  0  0  0  0  0  0  0  0  0  0  0
    1.1429   -0.8017   -2.1240 C   0  0  0  0  0  0  0  0  0  0  0  0
    0.9339   -0.8522   -0.7283 C   0  0  0  0  0  0  0  0  0  0  0  0
    1.9925   -1.3224    0.0715 C   0  0  0  0  0  0  0  0  0  0  0  0
    3.2126   -1.7082   -0.4965 C   0  0  0  0  0  0  0  0  0  0  0  0
   -0.4292   -0.4131   -0.1623 C   0  0  0  0  0  0  0  0  0  0  0  0
   -1.3788   -1.3546   -0.7531 O   0  0  0  0  0  0  0  0  0  0  0  0
   -1.9986   -2.1367    0.1719 C   0  0  0  0  0  0  0  0  0  0  0  0
   -2.7957   -3.0267   -0.0451 O   0  0  0  0  0  0  0  0  0  0  0  0
   -1.5525   -1.6764    1.4747 C   0  0  0  0  0  0  0  0  0  0  0  0
   -1.9563   -2.1282    2.7203 C   0  0  0  0  0  0  0  0  0  0  0  0
   -1.4197   -1.4976    3.8421 C   0  0  0  0  0  0  0  0  0  0  0  0
   -0.5107   -0.4382    3.6921 C   0  0  0  0  0  0  0  0  0  0  0  0
   -0.1230   -0.0035    2.4197 C   0  0  0  0  0  0  0  0  0  0  0  0
   -0.6489   -0.6471    1.3046 C   0  0  0  0  0  0  0  0  0  0  0  0
   -0.8156    1.0249   -0.5556 C   0  0  0  0  0  0  0  0  0  0  0  0
    0.1227    2.0743   -0.4636 C   0  0  0  0  0  0  0  0  0  0  0  0
   -0.2248    3.3872   -0.7953 C   0  0  0  0  0  0  0  0  0  0  0  0
   -1.5192    3.6662   -1.2146 C   0  0  0  0  0  0  0  0  0  0  0  0
   -1.9022    4.9310   -1.5482 O   0  0  0  0  0  0  0  0  0  0  0  0
   -2.4677    2.6572   -1.3057 C   0  0  0  0  0  0  0  0  0  0  0  0
   -2.1206    1.3446   -0.9766 C   0  0  0  0  0  0  0  0  0  0  0  0
    5.1605   -2.3344   -1.7804 H   0  0  0  0  0  0  0  0  0  0  0  0
    2.5018   -1.1358   -3.7665 H   0  0  0  0  0  0  0  0  0  0  0  0
    0.3446   -0.4634   -2.7843 H   0  0  0  0  0  0  0  0  0  0  0  0
    1.8927   -1.4100    1.1502 H   0  0  0  0  0  0  0  0  0  0  0  0
    4.0077   -2.0670    0.1500 H   0  0  0  0  0  0  0  0  0  0  0  0
   -2.6731   -2.9382    2.8147 H   0  0  0  0  0  0  0  0  0  0  0  0
   -1.7145   -1.8201    4.8384 H   0  0  0  0  0  0  0  0  0  0  0  0
   -0.1090    0.0528    4.5765 H   0  0  0  0  0  0  0  0  0  0  0  0
    0.5753    0.8223    2.3172 H   0  0  0  0  0  0  0  0  0  0  0  0
    1.1425    1.8754   -0.1384 H   0  0  0  0  0  0  0  0  0  0  0  0
    0.5237    4.1697   -0.7209 H   0  0  0  0  0  0  0  0  0  0  0  0
   -1.1349    5.5203   -1.4659 H   0  0  0  0  0  0  0  0  0  0  0  0
   -3.4775    2.8886   -1.6338 H   0  0  0  0  0  0  0  0  0  0  0  0
   -2.8861    0.5750   -1.0580 H   0  0  0  0  0  0  0  0  0  0  0  0
  1  2  1  0
  2  3  2  0
  3  4  1  0
  4  5  2  0
  5  6  1  0
  6  7  2  0
  5  8  1  0
  8  9  1  0
  9 10  1  0
 10 11  2  0
 10 12  1  0
 12 13  2  0
 13 14  1  0
 14 15  2  0
 15 16  1  0
 16 17  2  0
  8 18  1  0
 18 19  2  0
 19 20  1  0
 20 21  2  0
 21 22  1  0
 21 23  1  0
 23 24  2  0
  7  2  1  0
 17  8  1  0
 17 12  1  0
 24 18  1  0
  1 25  1  0
  3 26  1  0
  4 27  1  0
  6 28  1  0
  7 29  1  0
 13 30  1  0
 14 31  1  0
 15 32  1  0
 16 33  1  0
 19 34  1  0
 20 35  1  0
 22 36  1  0
 23 37  1  0
 24 38  1  0
M  END
>  <Energy>  (4) 
70.17677662912001

>  <Real charge>  (4) 
0

>  <Mult>  (4) 
1

$$$$
