mol_748 390
     RDKit          3D

 21 20  0  0  0  0  0  0  0  0999 V2000
    2.8146    0.1920    0.2611 C   0  0  0  0  0  0  0  0  0  0  0  0
    1.4332    0.7007   -0.1348 C   0  0  0  0  0  0  0  0  0  0  0  0
    0.3769   -0.4122   -0.0991 C   0  0  0  0  0  0  0  0  0  0  0  0
    0.2266   -0.8444    1.2517 O   0  0  0  0  0  0  0  0  0  0  0  0
   -0.9811    0.0397   -0.6853 C   0  0  0  0  0  0  0  0  0  0  0  0
   -1.9471   -1.1438   -0.8126 C   0  0  0  0  0  0  0  0  0  0  0  0
   -1.6506    1.1492    0.1312 C   0  0  0  0  0  0  0  0  0  0  0  0
    3.5455    1.0050    0.2050 H   0  0  0  0  0  0  0  0  0  0  0  0
    3.1448   -0.6071   -0.4102 H   0  0  0  0  0  0  0  0  0  0  0  0
    2.8189   -0.1942    1.2851 H   0  0  0  0  0  0  0  0  0  0  0  0
    1.1647    1.5043    0.5602 H   0  0  0  0  0  0  0  0  0  0  0  0
    1.4904    1.1307   -1.1412 H   0  0  0  0  0  0  0  0  0  0  0  0
    0.7507   -1.2655   -0.6789 H   0  0  0  0  0  0  0  0  0  0  0  0
   -0.3053   -1.6576    1.2462 H   0  0  0  0  0  0  0  0  0  0  0  0
   -0.8033    0.4243   -1.6981 H   0  0  0  0  0  0  0  0  0  0  0  0
   -2.2383   -1.5389    0.1660 H   0  0  0  0  0  0  0  0  0  0  0  0
   -2.8617   -0.8393   -1.3331 H   0  0  0  0  0  0  0  0  0  0  0  0
   -1.4934   -1.9568   -1.3890 H   0  0  0  0  0  0  0  0  0  0  0  0
   -1.0331    2.0518    0.1583 H   0  0  0  0  0  0  0  0  0  0  0  0
   -1.8405    0.8333    1.1623 H   0  0  0  0  0  0  0  0  0  0  0  0
   -2.6117    1.4288   -0.3144 H   0  0  0  0  0  0  0  0  0  0  0  0
  1  2  1  0
  2  3  1  0
  3  4  1  0
  3  5  1  0
  5  6  1  0
  5  7  1  0
  1  8  1  0
  1  9  1  0
  1 10  1  0
  2 11  1  0
  2 12  1  0
  3 13  1  0
  4 14  1  0
  5 15  1  0
  6 16  1  0
  6 17  1  0
  6 18  1  0
  7 19  1  0
  7 20  1  0
  7 21  1  0
M  END
>  <Energy>  (1) 
6.7926369541472

>  <Real charge>  (1) 
0

>  <Mult>  (1) 
1

$$$$
mol_748 63
     RDKit          3D

 21 20  0  0  0  0  0  0  0  0999 V2000
   -2.7687    0.2818   -0.4478 C   0  0  0  0  0  0  0  0  0  0  0  0
   -1.5136   -0.3185    0.1741 C   0  0  0  0  0  0  0  0  0  0  0  0
   -0.2647    0.5232   -0.1227 C   0  0  0  0  0  0  0  0  0  0  0  0
   -0.0144    0.5343   -1.5271 O   0  0  0  0  0  0  0  0  0  0  0  0
    0.9878    0.0484    0.6497 C   0  0  0  0  0  0  0  0  0  0  0  0
    2.1628    1.0028    0.4074 C   0  0  0  0  0  0  0  0  0  0  0  0
    1.4203   -1.3791    0.3021 C   0  0  0  0  0  0  0  0  0  0  0  0
   -2.9465    1.2942   -0.0717 H   0  0  0  0  0  0  0  0  0  0  0  0
   -3.6418   -0.3300   -0.1992 H   0  0  0  0  0  0  0  0  0  0  0  0
   -2.6897    0.3280   -1.5385 H   0  0  0  0  0  0  0  0  0  0  0  0
   -1.3970   -1.3314   -0.2273 H   0  0  0  0  0  0  0  0  0  0  0  0
   -1.6587   -0.4015    1.2571 H   0  0  0  0  0  0  0  0  0  0  0  0
   -0.4701    1.5615    0.1658 H   0  0  0  0  0  0  0  0  0  0  0  0
    0.0304   -0.3868   -1.8339 H   0  0  0  0  0  0  0  0  0  0  0  0
    0.7551    0.0758    1.7222 H   0  0  0  0  0  0  0  0  0  0  0  0
    1.8917    2.0292    0.6761 H   0  0  0  0  0  0  0  0  0  0  0  0
    2.4779    0.9972   -0.6414 H   0  0  0  0  0  0  0  0  0  0  0  0
    3.0257    0.7172    1.0187 H   0  0  0  0  0  0  0  0  0  0  0  0
    1.6780   -1.4791   -0.7571 H   0  0  0  0  0  0  0  0  0  0  0  0
    2.3026   -1.6649    0.8856 H   0  0  0  0  0  0  0  0  0  0  0  0
    0.6330   -2.1023    0.5339 H   0  0  0  0  0  0  0  0  0  0  0  0
  1  2  1  0
  2  3  1  0
  3  4  1  0
  3  5  1  0
  5  6  1  0
  5  7  1  0
  1  8  1  0
  1  9  1  0
  1 10  1  0
  2 11  1  0
  2 12  1  0
  3 13  1  0
  4 14  1  0
  5 15  1  0
  6 16  1  0
  6 17  1  0
  6 18  1  0
  7 19  1  0
  7 20  1  0
  7 21  1  0
M  END
>  <Energy>  (2) 
6.802620380172356

>  <Real charge>  (2) 
0

>  <Mult>  (2) 
1

$$$$
mol_748 89
     RDKit          3D

 21 20  0  0  0  0  0  0  0  0999 V2000
    2.7633   -0.4256   -0.1334 C   0  0  0  0  0  0  0  0  0  0  0  0
    1.3173   -0.7519    0.2213 C   0  0  0  0  0  0  0  0  0  0  0  0
    0.3591    0.4050   -0.0979 C   0  0  0  0  0  0  0  0  0  0  0  0
    0.8044    1.5739    0.5948 O   0  0  0  0  0  0  0  0  0  0  0  0
   -1.1096    0.1177    0.2927 C   0  0  0  0  0  0  0  0  0  0  0  0
   -1.6744   -1.1199   -0.4072 C   0  0  0  0  0  0  0  0  0  0  0  0
   -2.0017    1.3273   -0.0164 C   0  0  0  0  0  0  0  0  0  0  0  0
    3.4040   -1.2901    0.0678 H   0  0  0  0  0  0  0  0  0  0  0  0
    2.8581   -0.1726   -1.1942 H   0  0  0  0  0  0  0  0  0  0  0  0
    3.1411    0.4146    0.4574 H   0  0  0  0  0  0  0  0  0  0  0  0
    1.0260   -1.6524   -0.3288 H   0  0  0  0  0  0  0  0  0  0  0  0
    1.2718   -0.9870    1.2915 H   0  0  0  0  0  0  0  0  0  0  0  0
    0.4139    0.6308   -1.1696 H   0  0  0  0  0  0  0  0  0  0  0  0
    0.7642    1.3865    1.5483 H   0  0  0  0  0  0  0  0  0  0  0  0
   -1.1594   -0.0459    1.3773 H   0  0  0  0  0  0  0  0  0  0  0  0
   -1.1671   -2.0316   -0.0781 H   0  0  0  0  0  0  0  0  0  0  0  0
   -2.7381   -1.2461   -0.1776 H   0  0  0  0  0  0  0  0  0  0  0  0
   -1.5710   -1.0418   -1.4947 H   0  0  0  0  0  0  0  0  0  0  0  0
   -1.6792    2.2131    0.5402 H   0  0  0  0  0  0  0  0  0  0  0  0
   -1.9819    1.5701   -1.0843 H   0  0  0  0  0  0  0  0  0  0  0  0
   -3.0409    1.1259    0.2655 H   0  0  0  0  0  0  0  0  0  0  0  0
  1  2  1  0
  2  3  1  0
  3  4  1  0
  3  5  1  0
  5  6  1  0
  5  7  1  0
  1  8  1  0
  1  9  1  0
  1 10  1  0
  2 11  1  0
  2 12  1  0
  3 13  1  0
  4 14  1  0
  5 15  1  0
  6 16  1  0
  6 17  1  0
  6 18  1  0
  7 19  1  0
  7 20  1  0
  7 21  1  0
M  END
>  <Energy>  (3) 
6.809800435730244

>  <Real charge>  (3) 
0

>  <Mult>  (3) 
1

$$$$
mol_748 389
     RDKit          3D

 21 20  0  0  0  0  0  0  0  0999 V2000
    2.6225   -0.6759    0.0924 C   0  0  0  0  0  0  0  0  0  0  0  0
    1.1027   -0.7683    0.0086 C   0  0  0  0  0  0  0  0  0  0  0  0
    0.4398    0.6156    0.0126 C   0  0  0  0  0  0  0  0  0  0  0  0
    0.8704    1.3204   -1.1543 O   0  0  0  0  0  0  0  0  0  0  0  0
   -1.1057    0.5937    0.0465 C   0  0  0  0  0  0  0  0  0  0  0  0
   -1.7233   -0.1483   -1.1424 C   0  0  0  0  0  0  0  0  0  0  0  0
   -1.6451    0.0275    1.3606 C   0  0  0  0  0  0  0  0  0  0  0  0
    2.9330   -0.1523    1.0021 H   0  0  0  0  0  0  0  0  0  0  0  0
    3.0390   -0.1461   -0.7700 H   0  0  0  0  0  0  0  0  0  0  0  0
    3.0598   -1.6792    0.1130 H   0  0  0  0  0  0  0  0  0  0  0  0
    0.8538   -1.3055   -0.9137 H   0  0  0  0  0  0  0  0  0  0  0  0
    0.7467   -1.3679    0.8523 H   0  0  0  0  0  0  0  0  0  0  0  0
    0.8043    1.1819    0.8787 H   0  0  0  0  0  0  0  0  0  0  0  0
    0.4914    2.2149   -1.1135 H   0  0  0  0  0  0  0  0  0  0  0  0
   -1.4464    1.6357   -0.0272 H   0  0  0  0  0  0  0  0  0  0  0  0
   -1.3595    0.2530   -2.0935 H   0  0  0  0  0  0  0  0  0  0  0  0
   -2.8137   -0.0411   -1.1349 H   0  0  0  0  0  0  0  0  0  0  0  0
   -1.4979   -1.2191   -1.1131 H   0  0  0  0  0  0  0  0  0  0  0  0
   -1.2058    0.5468    2.2186 H   0  0  0  0  0  0  0  0  0  0  0  0
   -1.4345   -1.0417    1.4619 H   0  0  0  0  0  0  0  0  0  0  0  0
   -2.7317    0.1558    1.4156 H   0  0  0  0  0  0  0  0  0  0  0  0
  1  2  1  0
  2  3  1  0
  3  4  1  0
  3  5  1  0
  5  6  1  0
  5  7  1  0
  1  8  1  0
  1  9  1  0
  1 10  1  0
  2 11  1  0
  2 12  1  0
  3 13  1  0
  4 14  1  0
  5 15  1  0
  6 16  1  0
  6 17  1  0
  6 18  1  0
  7 19  1  0
  7 20  1  0
  7 21  1  0
M  END
>  <Energy>  (4) 
6.85726820208455

>  <Real charge>  (4) 
0

>  <Mult>  (4) 
1

$$$$
mol_748 127
     RDKit          3D

 21 20  0  0  0  0  0  0  0  0999 V2000
    2.2126   -0.1209    0.9604 C   0  0  0  0  0  0  0  0  0  0  0  0
    1.5159   -0.6708   -0.2730 C   0  0  0  0  0  0  0  0  0  0  0  0
    0.3435    0.1908   -0.7628 C   0  0  0  0  0  0  0  0  0  0  0  0
   -0.1959   -0.4201   -1.9374 O   0  0  0  0  0  0  0  0  0  0  0  0
   -0.7908    0.4064    0.2648 C   0  0  0  0  0  0  0  0  0  0  0  0
   -1.8722    1.3290   -0.3116 C   0  0  0  0  0  0  0  0  0  0  0  0
   -1.4398   -0.9024    0.7245 C   0  0  0  0  0  0  0  0  0  0  0  0
    2.5287    0.9153    0.8041 H   0  0  0  0  0  0  0  0  0  0  0  0
    1.5623   -0.1577    1.8391 H   0  0  0  0  0  0  0  0  0  0  0  0
    3.1035   -0.7162    1.1848 H   0  0  0  0  0  0  0  0  0  0  0  0
    2.2514   -0.7514   -1.0841 H   0  0  0  0  0  0  0  0  0  0  0  0
    1.1855   -1.6998   -0.0887 H   0  0  0  0  0  0  0  0  0  0  0  0
    0.7319    1.1720   -1.0637 H   0  0  0  0  0  0  0  0  0  0  0  0
    0.5197   -0.4807   -2.5929 H   0  0  0  0  0  0  0  0  0  0  0  0
   -0.3767    0.9089    1.1471 H   0  0  0  0  0  0  0  0  0  0  0  0
   -1.4383    2.2810   -0.6352 H   0  0  0  0  0  0  0  0  0  0  0  0
   -2.6330    1.5516    0.4446 H   0  0  0  0  0  0  0  0  0  0  0  0
   -2.3773    0.8749   -1.1706 H   0  0  0  0  0  0  0  0  0  0  0  0
   -2.2525   -0.7021    1.4314 H   0  0  0  0  0  0  0  0  0  0  0  0
   -1.8601   -1.4623   -0.1174 H   0  0  0  0  0  0  0  0  0  0  0  0
   -0.7183   -1.5458    1.2367 H   0  0  0  0  0  0  0  0  0  0  0  0
  1  2  1  0
  2  3  1  0
  3  4  1  0
  3  5  1  0
  5  6  1  0
  5  7  1  0
  1  8  1  0
  1  9  1  0
  1 10  1  0
  2 11  1  0
  2 12  1  0
  3 13  1  0
  4 14  1  0
  5 15  1  0
  6 16  1  0
  6 17  1  0
  6 18  1  0
  7 19  1  0
  7 20  1  0
  7 21  1  0
M  END
>  <Energy>  (5) 
6.88193154999105

>  <Real charge>  (5) 
0

>  <Mult>  (5) 
1

$$$$
mol_748 297
     RDKit          3D

 21 20  0  0  0  0  0  0  0  0999 V2000
    2.2412    0.7124    0.0912 C   0  0  0  0  0  0  0  0  0  0  0  0
    1.5051   -0.5746    0.4414 C   0  0  0  0  0  0  0  0  0  0  0  0
    0.1886   -0.7764   -0.3251 C   0  0  0  0  0  0  0  0  0  0  0  0
    0.4834   -0.8809   -1.7204 O   0  0  0  0  0  0  0  0  0  0  0  0
   -0.8700    0.3319   -0.1287 C   0  0  0  0  0  0  0  0  0  0  0  0
   -1.2164    0.5561    1.3442 C   0  0  0  0  0  0  0  0  0  0  0  0
   -2.1512    0.0007   -0.9068 C   0  0  0  0  0  0  0  0  0  0  0  0
    1.6662    1.5958    0.3833 H   0  0  0  0  0  0  0  0  0  0  0  0
    2.4499    0.7738   -0.9813 H   0  0  0  0  0  0  0  0  0  0  0  0
    3.1983    0.7510    0.6215 H   0  0  0  0  0  0  0  0  0  0  0  0
    2.1762   -1.4111    0.2083 H   0  0  0  0  0  0  0  0  0  0  0  0
    1.3265   -0.6100    1.5215 H   0  0  0  0  0  0  0  0  0  0  0  0
   -0.2424   -1.7377   -0.0182 H   0  0  0  0  0  0  0  0  0  0  0  0
    1.1028   -1.6217   -1.8354 H   0  0  0  0  0  0  0  0  0  0  0  0
   -0.4879    1.2720   -0.5462 H   0  0  0  0  0  0  0  0  0  0  0  0
   -2.0174    1.2963    1.4473 H   0  0  0  0  0  0  0  0  0  0  0  0
   -1.5525   -0.3725    1.8177 H   0  0  0  0  0  0  0  0  0  0  0  0
   -0.3563    0.9343    1.9046 H   0  0  0  0  0  0  0  0  0  0  0  0
   -2.5905   -0.9419   -0.5629 H   0  0  0  0  0  0  0  0  0  0  0  0
   -1.9539   -0.0874   -1.9800 H   0  0  0  0  0  0  0  0  0  0  0  0
   -2.8997    0.7898   -0.7760 H   0  0  0  0  0  0  0  0  0  0  0  0
  1  2  1  0
  2  3  1  0
  3  4  1  0
  3  5  1  0
  5  6  1  0
  5  7  1  0
  1  8  1  0
  1  9  1  0
  1 10  1  0
  2 11  1  0
  2 12  1  0
  3 13  1  0
  4 14  1  0
  5 15  1  0
  6 16  1  0
  6 17  1  0
  6 18  1  0
  7 19  1  0
  7 20  1  0
  7 21  1  0
M  END
>  <Energy>  (6) 
7.031116781881983

>  <Real charge>  (6) 
0

>  <Mult>  (6) 
1

$$$$
mol_748 233
     RDKit          3D

 21 20  0  0  0  0  0  0  0  0999 V2000
    2.3868   -0.4723   -0.1955 C   0  0  0  0  0  0  0  0  0  0  0  0
    1.5195    0.4304    0.6657 C   0  0  0  0  0  0  0  0  0  0  0  0
    0.1040   -0.1128    0.9061 C   0  0  0  0  0  0  0  0  0  0  0  0
   -0.5735    0.7853    1.7879 O   0  0  0  0  0  0  0  0  0  0  0  0
   -0.7420   -0.3591   -0.3649 C   0  0  0  0  0  0  0  0  0  0  0  0
   -2.1126   -0.9400    0.0040 C   0  0  0  0  0  0  0  0  0  0  0  0
   -0.9417    0.8964   -1.2186 C   0  0  0  0  0  0  0  0  0  0  0  0
    3.4094   -0.0833   -0.2355 H   0  0  0  0  0  0  0  0  0  0  0  0
    2.4265   -1.4865    0.2140 H   0  0  0  0  0  0  0  0  0  0  0  0
    2.0142   -0.5262   -1.2225 H   0  0  0  0  0  0  0  0  0  0  0  0
    1.4781    1.4346    0.2276 H   0  0  0  0  0  0  0  0  0  0  0  0
    2.0080    0.5663    1.6395 H   0  0  0  0  0  0  0  0  0  0  0  0
    0.1924   -1.0622    1.4485 H   0  0  0  0  0  0  0  0  0  0  0  0
   -0.5601    1.6704    1.3867 H   0  0  0  0  0  0  0  0  0  0  0  0
   -0.2308   -1.1072   -0.9829 H   0  0  0  0  0  0  0  0  0  0  0  0
   -2.0004   -1.8527    0.5987 H   0  0  0  0  0  0  0  0  0  0  0  0
   -2.7121   -0.2283    0.5812 H   0  0  0  0  0  0  0  0  0  0  0  0
   -2.6776   -1.1994   -0.8979 H   0  0  0  0  0  0  0  0  0  0  0  0
    0.0141    1.2971   -1.5687 H   0  0  0  0  0  0  0  0  0  0  0  0
   -1.4629    1.6847   -0.6661 H   0  0  0  0  0  0  0  0  0  0  0  0
   -1.5393    0.6646   -2.1072 H   0  0  0  0  0  0  0  0  0  0  0  0
  1  2  1  0
  2  3  1  0
  3  4  1  0
  3  5  1  0
  5  6  1  0
  5  7  1  0
  1  8  1  0
  1  9  1  0
  1 10  1  0
  2 11  1  0
  2 12  1  0
  3 13  1  0
  4 14  1  0
  5 15  1  0
  6 16  1  0
  6 17  1  0
  6 18  1  0
  7 19  1  0
  7 20  1  0
  7 21  1  0
M  END
>  <Energy>  (7) 
7.181615809084611

>  <Real charge>  (7) 
0

>  <Mult>  (7) 
1

$$$$
mol_748 255
     RDKit          3D

 21 20  0  0  0  0  0  0  0  0999 V2000
    2.3274    0.2219    0.7959 C   0  0  0  0  0  0  0  0  0  0  0  0
    1.6533    0.0872   -0.5591 C   0  0  0  0  0  0  0  0  0  0  0  0
    0.3078   -0.6502   -0.5177 C   0  0  0  0  0  0  0  0  0  0  0  0
   -0.1552   -0.7375   -1.8670 O   0  0  0  0  0  0  0  0  0  0  0  0
   -0.7682    0.0004    0.3831 C   0  0  0  0  0  0  0  0  0  0  0  0
   -1.1398    1.4189   -0.0584 C   0  0  0  0  0  0  0  0  0  0  0  0
   -2.0378   -0.8583    0.4361 C   0  0  0  0  0  0  0  0  0  0  0  0
    1.7665    0.8865    1.4593 H   0  0  0  0  0  0  0  0  0  0  0  0
    3.3296    0.6459    0.6758 H   0  0  0  0  0  0  0  0  0  0  0  0
    2.4288   -0.7528    1.2835 H   0  0  0  0  0  0  0  0  0  0  0  0
    2.3259   -0.4589   -1.2338 H   0  0  0  0  0  0  0  0  0  0  0  0
    1.5368    1.0762   -1.0179 H   0  0  0  0  0  0  0  0  0  0  0  0
    0.4926   -1.6758   -0.1737 H   0  0  0  0  0  0  0  0  0  0  0  0
   -0.8770   -1.3876   -1.8919 H   0  0  0  0  0  0  0  0  0  0  0  0
   -0.3804    0.0542    1.4074 H   0  0  0  0  0  0  0  0  0  0  0  0
   -0.2789    2.0916   -0.0018 H   0  0  0  0  0  0  0  0  0  0  0  0
   -1.5199    1.4351   -1.0851 H   0  0  0  0  0  0  0  0  0  0  0  0
   -1.9173    1.8340    0.5923 H   0  0  0  0  0  0  0  0  0  0  0  0
   -1.8011   -1.8853    0.7333 H   0  0  0  0  0  0  0  0  0  0  0  0
   -2.7435   -0.4551    1.1707 H   0  0  0  0  0  0  0  0  0  0  0  0
   -2.5496   -0.8902   -0.5311 H   0  0  0  0  0  0  0  0  0  0  0  0
  1  2  1  0
  2  3  1  0
  3  4  1  0
  3  5  1  0
  5  6  1  0
  5  7  1  0
  1  8  1  0
  1  9  1  0
  1 10  1  0
  2 11  1  0
  2 12  1  0
  3 13  1  0
  4 14  1  0
  5 15  1  0
  6 16  1  0
  6 17  1  0
  6 18  1  0
  7 19  1  0
  7 20  1  0
  7 21  1  0
M  END
>  <Energy>  (8) 
7.232421596840759

>  <Real charge>  (8) 
0

>  <Mult>  (8) 
1

$$$$
mol_748 277
     RDKit          3D

 21 20  0  0  0  0  0  0  0  0999 V2000
    2.7418   -0.2591    0.1772 C   0  0  0  0  0  0  0  0  0  0  0  0
    1.3154   -0.7468   -0.0482 C   0  0  0  0  0  0  0  0  0  0  0  0
    0.3030    0.3993   -0.1940 C   0  0  0  0  0  0  0  0  0  0  0  0
    0.6888    1.2222   -1.2973 O   0  0  0  0  0  0  0  0  0  0  0  0
   -1.1410   -0.0931   -0.4499 C   0  0  0  0  0  0  0  0  0  0  0  0
   -1.6630   -1.0026    0.6643 C   0  0  0  0  0  0  0  0  0  0  0  0
   -2.0987    1.0939   -0.6233 C   0  0  0  0  0  0  0  0  0  0  0  0
    3.1250    0.2790   -0.6950 H   0  0  0  0  0  0  0  0  0  0  0  0
    3.4053   -1.1112    0.3573 H   0  0  0  0  0  0  0  0  0  0  0  0
    2.7968    0.4034    1.0467 H   0  0  0  0  0  0  0  0  0  0  0  0
    1.0431   -1.3882    0.7961 H   0  0  0  0  0  0  0  0  0  0  0  0
    1.3054   -1.3664   -0.9530 H   0  0  0  0  0  0  0  0  0  0  0  0
    0.3187    1.0239    0.7079 H   0  0  0  0  0  0  0  0  0  0  0  0
    1.4702    1.7329   -1.0267 H   0  0  0  0  0  0  0  0  0  0  0  0
   -1.1578   -0.6555   -1.3929 H   0  0  0  0  0  0  0  0  0  0  0  0
   -2.7157   -1.2570    0.4988 H   0  0  0  0  0  0  0  0  0  0  0  0
   -1.5831   -0.5167    1.6424 H   0  0  0  0  0  0  0  0  0  0  0  0
   -1.1105   -1.9460    0.7024 H   0  0  0  0  0  0  0  0  0  0  0  0
   -2.1152    1.7222    0.2738 H   0  0  0  0  0  0  0  0  0  0  0  0
   -1.8085    1.7207   -1.4726 H   0  0  0  0  0  0  0  0  0  0  0  0
   -3.1201    0.7450   -0.8105 H   0  0  0  0  0  0  0  0  0  0  0  0
  1  2  1  0
  2  3  1  0
  3  4  1  0
  3  5  1  0
  5  6  1  0
  5  7  1  0
  1  8  1  0
  1  9  1  0
  1 10  1  0
  2 11  1  0
  2 12  1  0
  3 13  1  0
  4 14  1  0
  5 15  1  0
  6 16  1  0
  6 17  1  0
  6 18  1  0
  7 19  1  0
  7 20  1  0
  7 21  1  0
M  END
>  <Energy>  (9) 
7.278025064004895

>  <Real charge>  (9) 
0

>  <Mult>  (9) 
1

$$$$
mol_748 129
     RDKit          3D

 21 20  0  0  0  0  0  0  0  0999 V2000
    2.6837   -0.1592   -0.0425 C   0  0  0  0  0  0  0  0  0  0  0  0
    1.2096   -0.2729    0.3298 C   0  0  0  0  0  0  0  0  0  0  0  0
    0.2956    0.3322   -0.7453 C   0  0  0  0  0  0  0  0  0  0  0  0
    0.4719   -0.3754   -1.9749 O   0  0  0  0  0  0  0  0  0  0  0  0
   -1.2088    0.3557   -0.3894 C   0  0  0  0  0  0  0  0  0  0  0  0
   -1.5068    1.3204    0.7601 C   0  0  0  0  0  0  0  0  0  0  0  0
   -1.7867   -1.0271   -0.0733 C   0  0  0  0  0  0  0  0  0  0  0  0
    3.3066   -0.5756    0.7556 H   0  0  0  0  0  0  0  0  0  0  0  0
    2.9065   -0.7079   -0.9628 H   0  0  0  0  0  0  0  0  0  0  0  0
    2.9715    0.8871   -0.1859 H   0  0  0  0  0  0  0  0  0  0  0  0
    1.0549    0.2282    1.2906 H   0  0  0  0  0  0  0  0  0  0  0  0
    0.9833   -1.3363    0.4674 H   0  0  0  0  0  0  0  0  0  0  0  0
    0.6158    1.3628   -0.9413 H   0  0  0  0  0  0  0  0  0  0  0  0
    0.3559   -1.3239   -1.7979 H   0  0  0  0  0  0  0  0  0  0  0  0
   -1.7446    0.7214   -1.2761 H   0  0  0  0  0  0  0  0  0  0  0  0
   -1.0813    0.9714    1.7062 H   0  0  0  0  0  0  0  0  0  0  0  0
   -1.1030    2.3160    0.5490 H   0  0  0  0  0  0  0  0  0  0  0  0
   -2.5879    1.4248    0.9029 H   0  0  0  0  0  0  0  0  0  0  0  0
   -2.8683   -0.9607    0.0889 H   0  0  0  0  0  0  0  0  0  0  0  0
   -1.6235   -1.7271   -0.8983 H   0  0  0  0  0  0  0  0  0  0  0  0
   -1.3444   -1.4538    0.8325 H   0  0  0  0  0  0  0  0  0  0  0  0
  1  2  1  0
  2  3  1  0
  3  4  1  0
  3  5  1  0
  5  6  1  0
  5  7  1  0
  1  8  1  0
  1  9  1  0
  1 10  1  0
  2 11  1  0
  2 12  1  0
  3 13  1  0
  4 14  1  0
  5 15  1  0
  6 16  1  0
  6 17  1  0
  6 18  1  0
  7 19  1  0
  7 20  1  0
  7 21  1  0
M  END
>  <Energy>  (10) 
7.279458466064768

>  <Real charge>  (10) 
0

>  <Mult>  (10) 
1

$$$$
mol_748 188
     RDKit          3D

 21 20  0  0  0  0  0  0  0  0999 V2000
    2.1067   -0.8648    0.5698 C   0  0  0  0  0  0  0  0  0  0  0  0
    1.3138   -0.8459   -0.7309 C   0  0  0  0  0  0  0  0  0  0  0  0
    0.2957    0.2991   -0.8472 C   0  0  0  0  0  0  0  0  0  0  0  0
    1.0078    1.5374   -0.9061 O   0  0  0  0  0  0  0  0  0  0  0  0
   -0.7737    0.3636    0.2673 C   0  0  0  0  0  0  0  0  0  0  0  0
   -1.5618   -0.9412    0.3946 C   0  0  0  0  0  0  0  0  0  0  0  0
   -1.7465    1.5240    0.0176 C   0  0  0  0  0  0  0  0  0  0  0  0
    2.8323   -1.6847    0.5510 H   0  0  0  0  0  0  0  0  0  0  0  0
    2.6622    0.0664    0.7151 H   0  0  0  0  0  0  0  0  0  0  0  0
    1.4565   -1.0199    1.4354 H   0  0  0  0  0  0  0  0  0  0  0  0
    2.0337   -0.7549   -1.5542 H   0  0  0  0  0  0  0  0  0  0  0  0
    0.8108   -1.8106   -0.8590 H   0  0  0  0  0  0  0  0  0  0  0  0
   -0.2092    0.1934   -1.8153 H   0  0  0  0  0  0  0  0  0  0  0  0
    1.3491    1.7314   -0.0169 H   0  0  0  0  0  0  0  0  0  0  0  0
   -0.2828    0.5703    1.2265 H   0  0  0  0  0  0  0  0  0  0  0  0
   -2.3524   -0.8462    1.1468 H   0  0  0  0  0  0  0  0  0  0  0  0
   -0.9182   -1.7687    0.7074 H   0  0  0  0  0  0  0  0  0  0  0  0
   -2.0321   -1.2140   -0.5562 H   0  0  0  0  0  0  0  0  0  0  0  0
   -1.2230    2.4854    0.0017 H   0  0  0  0  0  0  0  0  0  0  0  0
   -2.5008    1.5755    0.8102 H   0  0  0  0  0  0  0  0  0  0  0  0
   -2.2681    1.4045   -0.9381 H   0  0  0  0  0  0  0  0  0  0  0  0
  1  2  1  0
  2  3  1  0
  3  4  1  0
  3  5  1  0
  5  6  1  0
  5  7  1  0
  1  8  1  0
  1  9  1  0
  1 10  1  0
  2 11  1  0
  2 12  1  0
  3 13  1  0
  4 14  1  0
  5 15  1  0
  6 16  1  0
  6 17  1  0
  6 18  1  0
  7 19  1  0
  7 20  1  0
  7 21  1  0
M  END
>  <Energy>  (11) 
7.3455078972778285

>  <Real charge>  (11) 
0

>  <Mult>  (11) 
1

$$$$
mol_748 296
     RDKit          3D

 21 20  0  0  0  0  0  0  0  0999 V2000
    2.8109   -0.1436    0.4710 C   0  0  0  0  0  0  0  0  0  0  0  0
    1.3795   -0.5789    0.7647 C   0  0  0  0  0  0  0  0  0  0  0  0
    0.3394    0.3990    0.1985 C   0  0  0  0  0  0  0  0  0  0  0  0
    0.6049    1.6860    0.7607 O   0  0  0  0  0  0  0  0  0  0  0  0
   -1.1183   -0.0081    0.5215 C   0  0  0  0  0  0  0  0  0  0  0  0
   -2.1194    1.0164   -0.0291 C   0  0  0  0  0  0  0  0  0  0  0  0
   -1.4738   -1.3953   -0.0196 C   0  0  0  0  0  0  0  0  0  0  0  0
    3.0461    0.8119    0.9497 H   0  0  0  0  0  0  0  0  0  0  0  0
    3.5160   -0.8898    0.8512 H   0  0  0  0  0  0  0  0  0  0  0  0
    2.9746   -0.0403   -0.6064 H   0  0  0  0  0  0  0  0  0  0  0  0
    1.2361   -1.5785    0.3423 H   0  0  0  0  0  0  0  0  0  0  0  0
    1.2619   -0.6564    1.8524 H   0  0  0  0  0  0  0  0  0  0  0  0
    0.4759    0.4756   -0.8875 H   0  0  0  0  0  0  0  0  0  0  0  0
    0.1678    2.3493    0.2006 H   0  0  0  0  0  0  0  0  0  0  0  0
   -1.2446   -0.0200    1.6123 H   0  0  0  0  0  0  0  0  0  0  0  0
   -3.1493    0.7032    0.1744 H   0  0  0  0  0  0  0  0  0  0  0  0
   -2.0093    1.1336   -1.1125 H   0  0  0  0  0  0  0  0  0  0  0  0
   -1.9846    1.9974    0.4372 H   0  0  0  0  0  0  0  0  0  0  0  0
   -0.9004   -2.1799    0.4828 H   0  0  0  0  0  0  0  0  0  0  0  0
   -2.5329   -1.6199    0.1475 H   0  0  0  0  0  0  0  0  0  0  0  0
   -1.2803   -1.4619   -1.0955 H   0  0  0  0  0  0  0  0  0  0  0  0
  1  2  1  0
  2  3  1  0
  3  4  1  0
  3  5  1  0
  5  6  1  0
  5  7  1  0
  1  8  1  0
  1  9  1  0
  1 10  1  0
  2 11  1  0
  2 12  1  0
  3 13  1  0
  4 14  1  0
  5 15  1  0
  6 16  1  0
  6 17  1  0
  6 18  1  0
  7 19  1  0
  7 20  1  0
  7 21  1  0
M  END
>  <Energy>  (12) 
7.358037991606631

>  <Real charge>  (12) 
0

>  <Mult>  (12) 
1

$$$$
mol_748 364
     RDKit          3D

 21 20  0  0  0  0  0  0  0  0999 V2000
    2.2642   -0.6782    0.4453 C   0  0  0  0  0  0  0  0  0  0  0  0
    1.5540    0.6686    0.3869 C   0  0  0  0  0  0  0  0  0  0  0  0
    0.2943    0.6830   -0.4929 C   0  0  0  0  0  0  0  0  0  0  0  0
    0.7113    0.4304   -1.8367 O   0  0  0  0  0  0  0  0  0  0  0  0
   -0.8071   -0.3241   -0.0871 C   0  0  0  0  0  0  0  0  0  0  0  0
   -2.0362   -0.2002   -0.9981 C   0  0  0  0  0  0  0  0  0  0  0  0
   -1.2439   -0.1502    1.3695 C   0  0  0  0  0  0  0  0  0  0  0  0
    1.6431   -1.4392    0.9263 H   0  0  0  0  0  0  0  0  0  0  0  0
    3.1867   -0.5883    1.0282 H   0  0  0  0  0  0  0  0  0  0  0  0
    2.5332   -1.0320   -0.5547 H   0  0  0  0  0  0  0  0  0  0  0  0
    2.2670    1.3984   -0.0179 H   0  0  0  0  0  0  0  0  0  0  0  0
    1.3131    0.9974    1.4035 H   0  0  0  0  0  0  0  0  0  0  0  0
   -0.1148    1.7012   -0.4691 H   0  0  0  0  0  0  0  0  0  0  0  0
    0.0024    0.7317   -2.4292 H   0  0  0  0  0  0  0  0  0  0  0  0
   -0.4262   -1.3447   -0.2187 H   0  0  0  0  0  0  0  0  0  0  0  0
   -1.7899   -0.4443   -2.0361 H   0  0  0  0  0  0  0  0  0  0  0  0
   -2.8251   -0.8920   -0.6832 H   0  0  0  0  0  0  0  0  0  0  0  0
   -2.4470    0.8148   -0.9728 H   0  0  0  0  0  0  0  0  0  0  0  0
   -1.5843    0.8731    1.5608 H   0  0  0  0  0  0  0  0  0  0  0  0
   -2.0672   -0.8306    1.6133 H   0  0  0  0  0  0  0  0  0  0  0  0
   -0.4278   -0.3747    2.0626 H   0  0  0  0  0  0  0  0  0  0  0  0
  1  2  1  0
  2  3  1  0
  3  4  1  0
  3  5  1  0
  5  6  1  0
  5  7  1  0
  1  8  1  0
  1  9  1  0
  1 10  1  0
  2 11  1  0
  2 12  1  0
  3 13  1  0
  4 14  1  0
  5 15  1  0
  6 16  1  0
  6 17  1  0
  6 18  1  0
  7 19  1  0
  7 20  1  0
  7 21  1  0
M  END
>  <Energy>  (13) 
7.6012992475844

>  <Real charge>  (13) 
0

>  <Mult>  (13) 
1

$$$$
