mol_731 380
     RDKit          3D

 30 31  0  0  0  0  0  0  0  0999 V2000
   -4.2518    0.6222   -0.4033 C   0  0  0  0  0  0  0  0  0  0  0  0
   -3.7786   -0.4960    0.5196 C   0  0  0  0  0  0  0  0  0  0  0  0
   -2.2638   -0.7330    0.4986 C   0  0  0  0  0  0  0  0  0  0  0  0
   -1.7953   -1.0991   -0.8058 N   0  0  0  0  0  0  0  0  0  0  0  0
   -0.4560   -1.1707   -1.0801 C   0  0  0  0  0  0  0  0  0  0  0  0
   -0.0217   -1.8511   -2.0007 O   0  0  0  0  0  0  0  0  0  0  0  0
    0.4298   -0.3677   -0.2133 C   0  0  0  0  0  0  0  0  0  0  0  0
    1.8130   -0.3680   -0.4175 C   0  0  0  0  0  0  0  0  0  0  0  0
    2.6243    0.4484    0.3783 C   0  0  0  0  0  0  0  0  0  0  0  0
    2.0484    1.2666    1.3546 C   0  0  0  0  0  0  0  0  0  0  0  0
    2.9603    2.3252    2.3700 Cl  0  0  0  0  0  0  0  0  0  0  0  0
    0.6576    1.2541    1.5426 C   0  0  0  0  0  0  0  0  0  0  0  0
   -0.1633    0.4098    0.7884 C   0  0  0  0  0  0  0  0  0  0  0  0
   -1.5580    0.4598    0.9376 N   0  0  0  0  0  0  0  0  0  0  0  0
    4.3701    0.4619    0.1430 S   0  0  0  0  0  6  0  0  0  0  0  0
    4.6497   -0.6333   -1.1035 N   0  0  0  0  0  0  0  0  0  0  0  0
    4.7564    1.7418   -0.4007 O   0  0  0  0  0  0  0  0  0  0  0  0
    4.9941   -0.1356    1.2996 O   0  0  0  0  0  0  0  0  0  0  0  0
   -4.0007    0.4119   -1.4474 H   0  0  0  0  0  0  0  0  0  0  0  0
   -5.3397    0.7260   -0.3361 H   0  0  0  0  0  0  0  0  0  0  0  0
   -3.8078    1.5837   -0.1277 H   0  0  0  0  0  0  0  0  0  0  0  0
   -4.2926   -1.4217    0.2324 H   0  0  0  0  0  0  0  0  0  0  0  0
   -4.0956   -0.2601    1.5431 H   0  0  0  0  0  0  0  0  0  0  0  0
   -2.0302   -1.5641    1.1773 H   0  0  0  0  0  0  0  0  0  0  0  0
   -2.3407   -1.7578   -1.3443 H   0  0  0  0  0  0  0  0  0  0  0  0
    2.2299   -0.9929   -1.2034 H   0  0  0  0  0  0  0  0  0  0  0  0
    0.2135    1.9121    2.2865 H   0  0  0  0  0  0  0  0  0  0  0  0
   -1.8421    0.7660    1.8643 H   0  0  0  0  0  0  0  0  0  0  0  0
    5.2335   -1.3972   -0.7587 H   0  0  0  0  0  0  0  0  0  0  0  0
    5.0571   -0.1410   -1.9008 H   0  0  0  0  0  0  0  0  0  0  0  0
  1  2  1  0
  2  3  1  0
  3  4  1  0
  4  5  1  0
  5  6  2  0
  5  7  1  0
  7  8  2  0
  8  9  1  0
  9 10  2  0
 10 11  1  0
 10 12  1  0
 12 13  2  0
 13 14  1  0
  9 15  1  0
 15 16  1  0
 15 17  2  0
 15 18  2  0
 13  7  1  0
 14  3  1  0
  1 19  1  0
  1 20  1  0
  1 21  1  0
  2 22  1  0
  2 23  1  0
  3 24  1  0
  4 25  1  0
  8 26  1  0
 12 27  1  0
 14 28  1  0
 16 29  1  0
 16 30  1  0
M  END
>  <Energy>  (1) 
-141.44694323578528

>  <Real charge>  (1) 
0

>  <Mult>  (1) 
1

$$$$
mol_731 416
     RDKit          3D

 30 31  0  0  0  0  0  0  0  0999 V2000
   -4.0962    0.9475   -0.9763 C   0  0  0  0  0  0  0  0  0  0  0  0
   -3.8622   -0.0253    0.1747 C   0  0  0  0  0  0  0  0  0  0  0  0
   -2.3988   -0.1370    0.6191 C   0  0  0  0  0  0  0  0  0  0  0  0
   -1.8787    1.1179    1.0758 N   0  0  0  0  0  0  0  0  0  0  0  0
   -0.5447    1.2732    1.3416 C   0  0  0  0  0  0  0  0  0  0  0  0
   -0.1362    2.1467    2.0955 O   0  0  0  0  0  0  0  0  0  0  0  0
    0.3690    0.3404    0.6518 C   0  0  0  0  0  0  0  0  0  0  0  0
    1.7501    0.4175    0.8520 C   0  0  0  0  0  0  0  0  0  0  0  0
    2.5994   -0.4347    0.1343 C   0  0  0  0  0  0  0  0  0  0  0  0
    2.0648   -1.3439   -0.7828 C   0  0  0  0  0  0  0  0  0  0  0  0
    3.0161   -2.4129   -1.7512 Cl  0  0  0  0  0  0  0  0  0  0  0  0
    0.6741   -1.4062   -0.9678 C   0  0  0  0  0  0  0  0  0  0  0  0
   -0.1909   -0.5947   -0.2265 C   0  0  0  0  0  0  0  0  0  0  0  0
   -1.5724   -0.6209   -0.4753 N   0  0  0  0  0  0  0  0  0  0  0  0
    4.3346   -0.3285    0.4311 S   0  0  0  0  0  6  0  0  0  0  0  0
    4.9476    0.1664   -1.0501 N   0  0  0  0  0  0  0  0  0  0  0  0
    4.5928    0.7795    1.3225 O   0  0  0  0  0  0  0  0  0  0  0  0
    4.8555   -1.6478    0.6945 O   0  0  0  0  0  0  0  0  0  0  0  0
   -3.5470    0.6460   -1.8734 H   0  0  0  0  0  0  0  0  0  0  0  0
   -3.7908    1.9638   -0.7090 H   0  0  0  0  0  0  0  0  0  0  0  0
   -5.1608    0.9751   -1.2307 H   0  0  0  0  0  0  0  0  0  0  0  0
   -4.2273   -1.0151   -0.1264 H   0  0  0  0  0  0  0  0  0  0  0  0
   -4.4745    0.2943    1.0271 H   0  0  0  0  0  0  0  0  0  0  0  0
   -2.3408   -0.8429    1.4584 H   0  0  0  0  0  0  0  0  0  0  0  0
   -2.4630    1.6944    1.6655 H   0  0  0  0  0  0  0  0  0  0  0  0
    2.1487    1.1491    1.5535 H   0  0  0  0  0  0  0  0  0  0  0  0
    0.2635   -2.0967   -1.7016 H   0  0  0  0  0  0  0  0  0  0  0  0
   -1.8875   -1.5168   -0.8375 H   0  0  0  0  0  0  0  0  0  0  0  0
    5.5492   -0.5613   -1.4390 H   0  0  0  0  0  0  0  0  0  0  0  0
    5.4063    1.0729   -0.9498 H   0  0  0  0  0  0  0  0  0  0  0  0
  1  2  1  0
  2  3  1  0
  3  4  1  0
  4  5  1  0
  5  6  2  0
  5  7  1  0
  7  8  2  0
  8  9  1  0
  9 10  2  0
 10 11  1  0
 10 12  1  0
 12 13  2  0
 13 14  1  0
  9 15  1  0
 15 16  1  0
 15 17  2  0
 15 18  2  0
 13  7  1  0
 14  3  1  0
  1 19  1  0
  1 20  1  0
  1 21  1  0
  2 22  1  0
  2 23  1  0
  3 24  1  0
  4 25  1  0
  8 26  1  0
 12 27  1  0
 14 28  1  0
 16 29  1  0
 16 30  1  0
M  END
>  <Energy>  (2) 
-141.23310589900782

>  <Real charge>  (2) 
0

>  <Mult>  (2) 
1

$$$$
mol_731 397
     RDKit          3D

 30 31  0  0  0  0  0  0  0  0999 V2000
   -4.7007    0.7744   -0.2424 C   0  0  0  0  0  0  0  0  0  0  0  0
   -3.7228   -0.2386    0.3379 C   0  0  0  0  0  0  0  0  0  0  0  0
   -2.2734    0.0161   -0.0927 C   0  0  0  0  0  0  0  0  0  0  0  0
   -1.7418    1.2132    0.4938 N   0  0  0  0  0  0  0  0  0  0  0  0
   -0.4072    1.5071    0.4043 C   0  0  0  0  0  0  0  0  0  0  0  0
    0.0081    2.6551    0.4955 O   0  0  0  0  0  0  0  0  0  0  0  0
    0.4998    0.3585    0.2103 C   0  0  0  0  0  0  0  0  0  0  0  0
    1.8810    0.5509    0.1122 C   0  0  0  0  0  0  0  0  0  0  0  0
    2.7214   -0.5616   -0.0069 C   0  0  0  0  0  0  0  0  0  0  0  0
    2.1789   -1.8501   -0.0092 C   0  0  0  0  0  0  0  0  0  0  0  0
    3.1326   -3.2853   -0.1278 Cl  0  0  0  0  0  0  0  0  0  0  0  0
    0.7896   -2.0219    0.0928 C   0  0  0  0  0  0  0  0  0  0  0  0
   -0.0680   -0.9199    0.1644 C   0  0  0  0  0  0  0  0  0  0  0  0
   -1.4493   -1.1049    0.3373 N   0  0  0  0  0  0  0  0  0  0  0  0
    4.4648   -0.3453   -0.1368 S   0  0  0  0  0  6  0  0  0  0  0  0
    4.7013    1.3201   -0.0900 N   0  0  0  0  0  0  0  0  0  0  0  0
    5.0859   -0.8373    1.0695 O   0  0  0  0  0  0  0  0  0  0  0  0
    4.8783   -0.7347   -1.4641 O   0  0  0  0  0  0  0  0  0  0  0  0
   -5.7250    0.5124    0.0417 H   0  0  0  0  0  0  0  0  0  0  0  0
   -4.6466    0.7896   -1.3355 H   0  0  0  0  0  0  0  0  0  0  0  0
   -4.5012    1.7844    0.1275 H   0  0  0  0  0  0  0  0  0  0  0  0
   -3.8025   -0.2298    1.4324 H   0  0  0  0  0  0  0  0  0  0  0  0
   -4.0323   -1.2389    0.0090 H   0  0  0  0  0  0  0  0  0  0  0  0
   -2.2178    0.1157   -1.1848 H   0  0  0  0  0  0  0  0  0  0  0  0
   -2.3170    2.0436    0.5047 H   0  0  0  0  0  0  0  0  0  0  0  0
    2.2763    1.5631    0.1468 H   0  0  0  0  0  0  0  0  0  0  0  0
    0.3762   -3.0279    0.1162 H   0  0  0  0  0  0  0  0  0  0  0  0
   -1.7714   -1.9939   -0.0363 H   0  0  0  0  0  0  0  0  0  0  0  0
    5.2524    1.5599    0.7364 H   0  0  0  0  0  0  0  0  0  0  0  0
    5.1306    1.6260   -0.9649 H   0  0  0  0  0  0  0  0  0  0  0  0
  1  2  1  0
  2  3  1  0
  3  4  1  0
  4  5  1  0
  5  6  2  0
  5  7  1  0
  7  8  2  0
  8  9  1  0
  9 10  2  0
 10 11  1  0
 10 12  1  0
 12 13  2  0
 13 14  1  0
  9 15  1  0
 15 16  1  0
 15 17  2  0
 15 18  2  0
 13  7  1  0
 14  3  1  0
  1 19  1  0
  1 20  1  0
  1 21  1  0
  2 22  1  0
  2 23  1  0
  3 24  1  0
  4 25  1  0
  8 26  1  0
 12 27  1  0
 14 28  1  0
 16 29  1  0
 16 30  1  0
M  END
>  <Energy>  (3) 
-141.06563000751993

>  <Real charge>  (3) 
0

>  <Mult>  (3) 
1

$$$$
mol_731 134
     RDKit          3D

 30 31  0  0  0  0  0  0  0  0999 V2000
   -4.5261   -0.0170   -0.8750 C   0  0  0  0  0  0  0  0  0  0  0  0
   -3.6763   -0.8672    0.0598 C   0  0  0  0  0  0  0  0  0  0  0  0
   -2.1789   -0.8009   -0.2617 C   0  0  0  0  0  0  0  0  0  0  0  0
   -1.4583   -1.7729    0.5122 N   0  0  0  0  0  0  0  0  0  0  0  0
   -0.0897   -1.7742    0.5454 C   0  0  0  0  0  0  0  0  0  0  0  0
    0.5488   -2.7829    0.8165 O   0  0  0  0  0  0  0  0  0  0  0  0
    0.5676   -0.4852    0.2537 C   0  0  0  0  0  0  0  0  0  0  0  0
    1.9614   -0.3778    0.2688 C   0  0  0  0  0  0  0  0  0  0  0  0
    2.5554    0.8704    0.0517 C   0  0  0  0  0  0  0  0  0  0  0  0
    1.7557    1.9974   -0.1601 C   0  0  0  0  0  0  0  0  0  0  0  0
    2.3916    3.5831   -0.4138 Cl  0  0  0  0  0  0  0  0  0  0  0  0
    0.3581    1.8687   -0.1692 C   0  0  0  0  0  0  0  0  0  0  0  0
   -0.2508    0.6210   -0.0014 C   0  0  0  0  0  0  0  0  0  0  0  0
   -1.6506    0.5171    0.0578 N   0  0  0  0  0  0  0  0  0  0  0  0
    4.3096    1.0307    0.0611 S   0  0  0  0  0  6  0  0  0  0  0  0
    4.8871   -0.5233    0.3492 N   0  0  0  0  0  0  0  0  0  0  0  0
    4.7013    1.7885    1.2253 O   0  0  0  0  0  0  0  0  0  0  0  0
    4.7498    1.3403   -1.2786 O   0  0  0  0  0  0  0  0  0  0  0  0
   -4.3606   -0.2979   -1.9199 H   0  0  0  0  0  0  0  0  0  0  0  0
   -4.3044    1.0484   -0.7637 H   0  0  0  0  0  0  0  0  0  0  0  0
   -5.5880   -0.1601   -0.6506 H   0  0  0  0  0  0  0  0  0  0  0  0
   -3.8588   -0.5566    1.0965 H   0  0  0  0  0  0  0  0  0  0  0  0
   -4.0192   -1.9069   -0.0188 H   0  0  0  0  0  0  0  0  0  0  0  0
   -2.0112   -1.0282   -1.3228 H   0  0  0  0  0  0  0  0  0  0  0  0
   -1.8487   -2.7010    0.5989 H   0  0  0  0  0  0  0  0  0  0  0  0
    2.5567   -1.2660    0.4656 H   0  0  0  0  0  0  0  0  0  0  0  0
   -0.2587    2.7540   -0.3090 H   0  0  0  0  0  0  0  0  0  0  0  0
   -2.1106    1.2625   -0.4571 H   0  0  0  0  0  0  0  0  0  0  0  0
    5.3994   -0.5349    1.2332 H   0  0  0  0  0  0  0  0  0  0  0  0
    5.4484   -0.8292   -0.4475 H   0  0  0  0  0  0  0  0  0  0  0  0
  1  2  1  0
  2  3  1  0
  3  4  1  0
  4  5  1  0
  5  6  2  0
  5  7  1  0
  7  8  2  0
  8  9  1  0
  9 10  2  0
 10 11  1  0
 10 12  1  0
 12 13  2  0
 13 14  1  0
  9 15  1  0
 15 16  1  0
 15 17  2  0
 15 18  2  0
 13  7  1  0
 14  3  1  0
  1 19  1  0
  1 20  1  0
  1 21  1  0
  2 22  1  0
  2 23  1  0
  3 24  1  0
  4 25  1  0
  8 26  1  0
 12 27  1  0
 14 28  1  0
 16 29  1  0
 16 30  1  0
M  END
>  <Energy>  (4) 
-141.014476890654

>  <Real charge>  (4) 
0

>  <Mult>  (4) 
1

$$$$
mol_731 71
     RDKit          3D

 30 31  0  0  0  0  0  0  0  0999 V2000
   -4.3687   -0.3478    0.1844 C   0  0  0  0  0  0  0  0  0  0  0  0
   -3.6929    0.2826   -1.0288 C   0  0  0  0  0  0  0  0  0  0  0  0
   -2.1712    0.0979   -1.0704 C   0  0  0  0  0  0  0  0  0  0  0  0
   -1.7988   -1.2853   -1.1099 N   0  0  0  0  0  0  0  0  0  0  0  0
   -0.4927   -1.6687   -0.9630 C   0  0  0  0  0  0  0  0  0  0  0  0
   -0.0842   -2.7392   -1.3934 O   0  0  0  0  0  0  0  0  0  0  0  0
    0.3856   -0.7246   -0.2432 C   0  0  0  0  0  0  0  0  0  0  0  0
    1.7332   -1.0277   -0.0292 C   0  0  0  0  0  0  0  0  0  0  0  0
    2.5300   -0.1433    0.7094 C   0  0  0  0  0  0  0  0  0  0  0  0
    1.9710    1.0209    1.2435 C   0  0  0  0  0  0  0  0  0  0  0  0
    2.8520    2.1746    2.1808 Cl  0  0  0  0  0  0  0  0  0  0  0  0
    0.6145    1.3058    1.0182 C   0  0  0  0  0  0  0  0  0  0  0  0
   -0.1832    0.4585    0.2422 C   0  0  0  0  0  0  0  0  0  0  0  0
   -1.5531    0.7222    0.0880 N   0  0  0  0  0  0  0  0  0  0  0  0
    4.2219   -0.5654    0.9717 S   0  0  0  0  0  6  0  0  0  0  0  0
    5.0488    0.6948    0.2315 N   0  0  0  0  0  0  0  0  0  0  0  0
    4.5466   -1.7263    0.1741 O   0  0  0  0  0  0  0  0  0  0  0  0
    4.5209   -0.5043    2.3814 O   0  0  0  0  0  0  0  0  0  0  0  0
   -4.0018    0.0881    1.1186 H   0  0  0  0  0  0  0  0  0  0  0  0
   -4.2017   -1.4288    0.2182 H   0  0  0  0  0  0  0  0  0  0  0  0
   -5.4494   -0.1784    0.1393 H   0  0  0  0  0  0  0  0  0  0  0  0
   -3.9298    1.3537   -1.0417 H   0  0  0  0  0  0  0  0  0  0  0  0
   -4.1339   -0.1520   -1.9346 H   0  0  0  0  0  0  0  0  0  0  0  0
   -1.7865    0.5684   -1.9851 H   0  0  0  0  0  0  0  0  0  0  0  0
   -2.3216   -1.9068   -1.7114 H   0  0  0  0  0  0  0  0  0  0  0  0
    2.1417   -1.9570   -0.4240 H   0  0  0  0  0  0  0  0  0  0  0  0
    0.1772    2.2009    1.4558 H   0  0  0  0  0  0  0  0  0  0  0  0
   -1.7748    1.7108    0.1674 H   0  0  0  0  0  0  0  0  0  0  0  0
    5.6293    0.3265   -0.5233 H   0  0  0  0  0  0  0  0  0  0  0  0
    5.5718    1.2215    0.9333 H   0  0  0  0  0  0  0  0  0  0  0  0
  1  2  1  0
  2  3  1  0
  3  4  1  0
  4  5  1  0
  5  6  2  0
  5  7  1  0
  7  8  2  0
  8  9  1  0
  9 10  2  0
 10 11  1  0
 10 12  1  0
 12 13  2  0
 13 14  1  0
  9 15  1  0
 15 16  1  0
 15 17  2  0
 15 18  2  0
 13  7  1  0
 14  3  1  0
  1 19  1  0
  1 20  1  0
  1 21  1  0
  2 22  1  0
  2 23  1  0
  3 24  1  0
  4 25  1  0
  8 26  1  0
 12 27  1  0
 14 28  1  0
 16 29  1  0
 16 30  1  0
M  END
>  <Energy>  (5) 
-140.98161902628624

>  <Real charge>  (5) 
0

>  <Mult>  (5) 
1

$$$$
mol_731 264
     RDKit          3D

 30 31  0  0  0  0  0  0  0  0999 V2000
   -4.8383   -0.0405    0.2525 C   0  0  0  0  0  0  0  0  0  0  0  0
   -3.6760   -0.5226   -0.6054 C   0  0  0  0  0  0  0  0  0  0  0  0
   -2.3099   -0.2713    0.0442 C   0  0  0  0  0  0  0  0  0  0  0  0
   -1.9916    1.1266    0.1002 N   0  0  0  0  0  0  0  0  0  0  0  0
   -0.7372    1.5474    0.4541 C   0  0  0  0  0  0  0  0  0  0  0  0
   -0.5392    2.6628    0.9173 O   0  0  0  0  0  0  0  0  0  0  0  0
    0.3595    0.5862    0.2241 C   0  0  0  0  0  0  0  0  0  0  0  0
    1.6781    0.9158    0.5485 C   0  0  0  0  0  0  0  0  0  0  0  0
    2.7066    0.0113    0.2541 C   0  0  0  0  0  0  0  0  0  0  0  0
    2.4113   -1.2034   -0.3714 C   0  0  0  0  0  0  0  0  0  0  0  0
    3.6002   -2.3749   -0.8182 Cl  0  0  0  0  0  0  0  0  0  0  0  0
    1.0791   -1.5154   -0.6876 C   0  0  0  0  0  0  0  0  0  0  0  0
    0.0356   -0.6442   -0.3586 C   0  0  0  0  0  0  0  0  0  0  0  0
   -1.2827   -0.9388   -0.7439 N   0  0  0  0  0  0  0  0  0  0  0  0
    4.3560    0.4477    0.7009 S   0  0  0  0  0  6  0  0  0  0  0  0
    5.1426    0.5398   -0.7779 N   0  0  0  0  0  0  0  0  0  0  0  0
    4.3644    1.8022    1.2049 O   0  0  0  0  0  0  0  0  0  0  0  0
    4.9531   -0.6377    1.4404 O   0  0  0  0  0  0  0  0  0  0  0  0
   -5.7892   -0.2993   -0.2244 H   0  0  0  0  0  0  0  0  0  0  0  0
   -4.8177    1.0451    0.3853 H   0  0  0  0  0  0  0  0  0  0  0  0
   -4.8170   -0.5102    1.2409 H   0  0  0  0  0  0  0  0  0  0  0  0
   -3.8053   -1.5980   -0.7821 H   0  0  0  0  0  0  0  0  0  0  0  0
   -3.7268   -0.0352   -1.5873 H   0  0  0  0  0  0  0  0  0  0  0  0
   -2.3026   -0.6663    1.0687 H   0  0  0  0  0  0  0  0  0  0  0  0
   -2.7083    1.7757    0.3931 H   0  0  0  0  0  0  0  0  0  0  0  0
    1.8901    1.8780    1.0128 H   0  0  0  0  0  0  0  0  0  0  0  0
    0.8561   -2.4501   -1.1979 H   0  0  0  0  0  0  0  0  0  0  0  0
   -1.4463   -1.9382   -0.8318 H   0  0  0  0  0  0  0  0  0  0  0  0
    5.4911    1.4878   -0.9266 H   0  0  0  0  0  0  0  0  0  0  0  0
    5.8645   -0.1802   -0.8344 H   0  0  0  0  0  0  0  0  0  0  0  0
  1  2  1  0
  2  3  1  0
  3  4  1  0
  4  5  1  0
  5  6  2  0
  5  7  1  0
  7  8  2  0
  8  9  1  0
  9 10  2  0
 10 11  1  0
 10 12  1  0
 12 13  2  0
 13 14  1  0
  9 15  1  0
 15 16  1  0
 15 17  2  0
 15 18  2  0
 13  7  1  0
 14  3  1  0
  1 19  1  0
  1 20  1  0
  1 21  1  0
  2 22  1  0
  2 23  1  0
  3 24  1  0
  4 25  1  0
  8 26  1  0
 12 27  1  0
 14 28  1  0
 16 29  1  0
 16 30  1  0
M  END
>  <Energy>  (6) 
-140.8569672166598

>  <Real charge>  (6) 
0

>  <Mult>  (6) 
1

$$$$
mol_731 175
     RDKit          3D

 30 31  0  0  0  0  0  0  0  0999 V2000
   -4.4701    1.0899   -0.0370 C   0  0  0  0  0  0  0  0  0  0  0  0
   -3.7781   -0.1512   -0.5846 C   0  0  0  0  0  0  0  0  0  0  0  0
   -2.3723   -0.3587   -0.0096 C   0  0  0  0  0  0  0  0  0  0  0  0
   -1.8568   -1.6403   -0.4011 N   0  0  0  0  0  0  0  0  0  0  0  0
   -0.5489   -1.9741   -0.1710 C   0  0  0  0  0  0  0  0  0  0  0  0
   -0.1861   -3.1402   -0.0902 O   0  0  0  0  0  0  0  0  0  0  0  0
    0.3959   -0.8468   -0.0482 C   0  0  0  0  0  0  0  0  0  0  0  0
    1.7548   -1.0761    0.1838 C   0  0  0  0  0  0  0  0  0  0  0  0
    2.6393    0.0095    0.2259 C   0  0  0  0  0  0  0  0  0  0  0  0
    2.1624    1.3077    0.0232 C   0  0  0  0  0  0  0  0  0  0  0  0
    3.1647    2.7151    0.0122 Cl  0  0  0  0  0  0  0  0  0  0  0  0
    0.7928    1.5158   -0.2071 C   0  0  0  0  0  0  0  0  0  0  0  0
   -0.1106    0.4480   -0.2061 C   0  0  0  0  0  0  0  0  0  0  0  0
   -1.4659    0.6662   -0.5069 N   0  0  0  0  0  0  0  0  0  0  0  0
    4.3431   -0.3133    0.5471 S   0  0  0  0  0  6  0  0  0  0  0  0
    5.1016    0.1928   -0.8610 N   0  0  0  0  0  0  0  0  0  0  0  0
    4.5529   -1.7428    0.5823 O   0  0  0  0  0  0  0  0  0  0  0  0
    4.7982    0.5440    1.6145 O   0  0  0  0  0  0  0  0  0  0  0  0
   -5.4940    1.1481   -0.4201 H   0  0  0  0  0  0  0  0  0  0  0  0
   -4.5193    1.0614    1.0561 H   0  0  0  0  0  0  0  0  0  0  0  0
   -3.9515    2.0054   -0.3364 H   0  0  0  0  0  0  0  0  0  0  0  0
   -3.7379   -0.0887   -1.6796 H   0  0  0  0  0  0  0  0  0  0  0  0
   -4.4010   -1.0225   -0.3450 H   0  0  0  0  0  0  0  0  0  0  0  0
   -2.4066   -0.3330    1.0876 H   0  0  0  0  0  0  0  0  0  0  0  0
   -2.4729   -2.4401   -0.3534 H   0  0  0  0  0  0  0  0  0  0  0  0
    2.1101   -2.0973    0.3145 H   0  0  0  0  0  0  0  0  0  0  0  0
    0.4296    2.5250   -0.3904 H   0  0  0  0  0  0  0  0  0  0  0  0
   -1.7635    1.6067   -0.2631 H   0  0  0  0  0  0  0  0  0  0  0  0
    5.7138    0.9855   -0.6617 H   0  0  0  0  0  0  0  0  0  0  0  0
    5.5763   -0.5962   -1.3018 H   0  0  0  0  0  0  0  0  0  0  0  0
  1  2  1  0
  2  3  1  0
  3  4  1  0
  4  5  1  0
  5  6  2  0
  5  7  1  0
  7  8  2  0
  8  9  1  0
  9 10  2  0
 10 11  1  0
 10 12  1  0
 12 13  2  0
 13 14  1  0
  9 15  1  0
 15 16  1  0
 15 17  2  0
 15 18  2  0
 13  7  1  0
 14  3  1  0
  1 19  1  0
  1 20  1  0
  1 21  1  0
  2 22  1  0
  2 23  1  0
  3 24  1  0
  4 25  1  0
  8 26  1  0
 12 27  1  0
 14 28  1  0
 16 29  1  0
 16 30  1  0
M  END
>  <Energy>  (7) 
-140.8041944675209

>  <Real charge>  (7) 
0

>  <Mult>  (7) 
1

$$$$
mol_731 166
     RDKit          3D

 30 31  0  0  0  0  0  0  0  0999 V2000
   -4.0530    0.8307   -1.0681 C   0  0  0  0  0  0  0  0  0  0  0  0
   -2.8745   -0.1300   -0.9819 C   0  0  0  0  0  0  0  0  0  0  0  0
   -2.4936   -0.4646    0.4693 C   0  0  0  0  0  0  0  0  0  0  0  0
   -2.0061    0.6680    1.2007 N   0  0  0  0  0  0  0  0  0  0  0  0
   -0.7284    1.1367    1.0698 C   0  0  0  0  0  0  0  0  0  0  0  0
   -0.4204    2.2740    1.4025 O   0  0  0  0  0  0  0  0  0  0  0  0
    0.2622    0.1833    0.5318 C   0  0  0  0  0  0  0  0  0  0  0  0
    1.5923    0.5711    0.3443 C   0  0  0  0  0  0  0  0  0  0  0  0
    2.5241   -0.3703   -0.1063 C   0  0  0  0  0  0  0  0  0  0  0  0
    2.1251   -1.6881   -0.3475 C   0  0  0  0  0  0  0  0  0  0  0  0
    3.2026   -2.9274   -0.8829 Cl  0  0  0  0  0  0  0  0  0  0  0  0
    0.7856   -2.0581   -0.1501 C   0  0  0  0  0  0  0  0  0  0  0  0
   -0.1681   -1.1197    0.2557 C   0  0  0  0  0  0  0  0  0  0  0  0
   -1.4878   -1.5153    0.5110 N   0  0  0  0  0  0  0  0  0  0  0  0
    4.2046    0.0953   -0.3554 S   0  0  0  0  0  6  0  0  0  0  0  0
    4.2672    1.7292    0.0421 N   0  0  0  0  0  0  0  0  0  0  0  0
    4.4883    0.0537   -1.7704 O   0  0  0  0  0  0  0  0  0  0  0  0
    5.0203   -0.5556    0.6416 O   0  0  0  0  0  0  0  0  0  0  0  0
   -3.8103    1.8004   -0.6229 H   0  0  0  0  0  0  0  0  0  0  0  0
   -4.3236    1.0011   -2.1150 H   0  0  0  0  0  0  0  0  0  0  0  0
   -4.9295    0.4236   -0.5540 H   0  0  0  0  0  0  0  0  0  0  0  0
   -2.0250    0.3059   -1.5218 H   0  0  0  0  0  0  0  0  0  0  0  0
   -3.1399   -1.0540   -1.5110 H   0  0  0  0  0  0  0  0  0  0  0  0
   -3.3816   -0.8239    1.0014 H   0  0  0  0  0  0  0  0  0  0  0  0
   -2.6688    1.3561    1.5291 H   0  0  0  0  0  0  0  0  0  0  0  0
    1.8793    1.5956    0.5678 H   0  0  0  0  0  0  0  0  0  0  0  0
    0.4869   -3.0907   -0.3171 H   0  0  0  0  0  0  0  0  0  0  0  0
   -1.7646   -2.3533    0.0078 H   0  0  0  0  0  0  0  0  0  0  0  0
    4.5482    2.2672   -0.7794 H   0  0  0  0  0  0  0  0  0  0  0  0
    4.8887    1.8587    0.8427 H   0  0  0  0  0  0  0  0  0  0  0  0
  1  2  1  0
  2  3  1  0
  3  4  1  0
  4  5  1  0
  5  6  2  0
  5  7  1  0
  7  8  2  0
  8  9  1  0
  9 10  2  0
 10 11  1  0
 10 12  1  0
 12 13  2  0
 13 14  1  0
  9 15  1  0
 15 16  1  0
 15 17  2  0
 15 18  2  0
 13  7  1  0
 14  3  1  0
  1 19  1  0
  1 20  1  0
  1 21  1  0
  2 22  1  0
  2 23  1  0
  3 24  1  0
  4 25  1  0
  8 26  1  0
 12 27  1  0
 14 28  1  0
 16 29  1  0
 16 30  1  0
M  END
>  <Energy>  (8) 
-140.60054494039832

>  <Real charge>  (8) 
0

>  <Mult>  (8) 
1

$$$$
mol_731 294
     RDKit          3D

 30 31  0  0  0  0  0  0  0  0999 V2000
   -4.7809   -0.1028    0.5040 C   0  0  0  0  0  0  0  0  0  0  0  0
   -3.6354   -0.9604   -0.0173 C   0  0  0  0  0  0  0  0  0  0  0  0
   -2.2613   -0.3126    0.1918 C   0  0  0  0  0  0  0  0  0  0  0  0
   -2.0815    0.8438   -0.6381 N   0  0  0  0  0  0  0  0  0  0  0  0
   -0.8546    1.4411   -0.7545 C   0  0  0  0  0  0  0  0  0  0  0  0
   -0.7391    2.6172   -1.0729 O   0  0  0  0  0  0  0  0  0  0  0  0
    0.3152    0.5799   -0.4913 C   0  0  0  0  0  0  0  0  0  0  0  0
    1.6132    1.0876   -0.5932 C   0  0  0  0  0  0  0  0  0  0  0  0
    2.7051    0.2312   -0.4008 C   0  0  0  0  0  0  0  0  0  0  0  0
    2.4915   -1.1235   -0.1311 C   0  0  0  0  0  0  0  0  0  0  0  0
    3.7590   -2.2731    0.1087 Cl  0  0  0  0  0  0  0  0  0  0  0  0
    1.1789   -1.6135   -0.0349 C   0  0  0  0  0  0  0  0  0  0  0  0
    0.0779   -0.7624   -0.1749 C   0  0  0  0  0  0  0  0  0  0  0  0
   -1.2271   -1.2802   -0.1469 N   0  0  0  0  0  0  0  0  0  0  0  0
    4.3286    0.9029   -0.5511 S   0  0  0  0  0  6  0  0  0  0  0  0
    4.9877    0.6522    0.9730 N   0  0  0  0  0  0  0  0  0  0  0  0
    5.0931    0.1117   -1.4837 O   0  0  0  0  0  0  0  0  0  0  0  0
    4.2341    2.3403   -0.6702 O   0  0  0  0  0  0  0  0  0  0  0  0
   -4.8602    0.8402   -0.0448 H   0  0  0  0  0  0  0  0  0  0  0  0
   -4.6475    0.1255    1.5662 H   0  0  0  0  0  0  0  0  0  0  0  0
   -5.7305   -0.6353    0.3894 H   0  0  0  0  0  0  0  0  0  0  0  0
   -3.7993   -1.1716   -1.0817 H   0  0  0  0  0  0  0  0  0  0  0  0
   -3.6680   -1.9262    0.5027 H   0  0  0  0  0  0  0  0  0  0  0  0
   -2.1470   -0.0039    1.2393 H   0  0  0  0  0  0  0  0  0  0  0  0
   -2.8380    1.5092   -0.7125 H   0  0  0  0  0  0  0  0  0  0  0  0
    1.7589    2.1385   -0.8396 H   0  0  0  0  0  0  0  0  0  0  0  0
    1.0168   -2.6731    0.1514 H   0  0  0  0  0  0  0  0  0  0  0  0
   -1.2954   -2.1346    0.3994 H   0  0  0  0  0  0  0  0  0  0  0  0
    5.7721    0.0014    0.9051 H   0  0  0  0  0  0  0  0  0  0  0  0
    5.2337    1.5505    1.3912 H   0  0  0  0  0  0  0  0  0  0  0  0
  1  2  1  0
  2  3  1  0
  3  4  1  0
  4  5  1  0
  5  6  2  0
  5  7  1  0
  7  8  2  0
  8  9  1  0
  9 10  2  0
 10 11  1  0
 10 12  1  0
 12 13  2  0
 13 14  1  0
  9 15  1  0
 15 16  1  0
 15 17  2  0
 15 18  2  0
 13  7  1  0
 14  3  1  0
  1 19  1  0
  1 20  1  0
  1 21  1  0
  2 22  1  0
  2 23  1  0
  3 24  1  0
  4 25  1  0
  8 26  1  0
 12 27  1  0
 14 28  1  0
 16 29  1  0
 16 30  1  0
M  END
>  <Energy>  (9) 
-140.60026954005377

>  <Real charge>  (9) 
0

>  <Mult>  (9) 
1

$$$$
mol_731 90
     RDKit          3D

 30 31  0  0  0  0  0  0  0  0999 V2000
    4.5215   -0.4700    0.2529 C   0  0  0  0  0  0  0  0  0  0  0  0
    3.7470    0.6072   -0.4947 C   0  0  0  0  0  0  0  0  0  0  0  0
    2.2659    0.2605   -0.6844 C   0  0  0  0  0  0  0  0  0  0  0  0
    1.6407    1.2059   -1.5659 N   0  0  0  0  0  0  0  0  0  0  0  0
    0.2821    1.2207   -1.7353 C   0  0  0  0  0  0  0  0  0  0  0  0
   -0.2362    1.6783   -2.7451 O   0  0  0  0  0  0  0  0  0  0  0  0
   -0.5162    0.6698   -0.6227 C   0  0  0  0  0  0  0  0  0  0  0  0
   -1.9120    0.6483   -0.6879 C   0  0  0  0  0  0  0  0  0  0  0  0
   -2.6460    0.1787    0.4090 C   0  0  0  0  0  0  0  0  0  0  0  0
   -1.9825   -0.2431    1.5646 C   0  0  0  0  0  0  0  0  0  0  0  0
   -2.7827   -0.8262    2.9806 Cl  0  0  0  0  0  0  0  0  0  0  0  0
   -0.5792   -0.2116    1.6097 C   0  0  0  0  0  0  0  0  0  0  0  0
    0.1703    0.2075    0.5055 C   0  0  0  0  0  0  0  0  0  0  0  0
    1.5693    0.3000    0.5929 N   0  0  0  0  0  0  0  0  0  0  0  0
   -4.4058    0.1794    0.2971 S   0  0  0  0  0  6  0  0  0  0  0  0
   -4.7989   -1.4453    0.4574 N   0  0  0  0  0  0  0  0  0  0  0  0
   -4.7913    0.5110   -1.0559 O   0  0  0  0  0  0  0  0  0  0  0  0
   -4.9609    0.8687    1.4360 O   0  0  0  0  0  0  0  0  0  0  0  0
    5.5838   -0.2083    0.2933 H   0  0  0  0  0  0  0  0  0  0  0  0
    4.1676   -0.5796    1.2822 H   0  0  0  0  0  0  0  0  0  0  0  0
    4.4308   -1.4383   -0.2494 H   0  0  0  0  0  0  0  0  0  0  0  0
    4.2167    0.7450   -1.4771 H   0  0  0  0  0  0  0  0  0  0  0  0
    3.8512    1.5616    0.0370 H   0  0  0  0  0  0  0  0  0  0  0  0
    2.1671   -0.7346   -1.1378 H   0  0  0  0  0  0  0  0  0  0  0  0
    2.1363    1.4820   -2.4024 H   0  0  0  0  0  0  0  0  0  0  0  0
   -2.4115    1.0148   -1.5838 H   0  0  0  0  0  0  0  0  0  0  0  0
   -0.0674   -0.5181    2.5196 H   0  0  0  0  0  0  0  0  0  0  0  0
    1.9543   -0.3487    1.2734 H   0  0  0  0  0  0  0  0  0  0  0  0
   -5.3346   -1.5860    1.3157 H   0  0  0  0  0  0  0  0  0  0  0  0
   -5.2795   -1.7656   -0.3844 H   0  0  0  0  0  0  0  0  0  0  0  0
  1  2  1  0
  2  3  1  0
  3  4  1  0
  4  5  1  0
  5  6  2  0
  5  7  1  0
  7  8  2  0
  8  9  1  0
  9 10  2  0
 10 11  1  0
 10 12  1  0
 12 13  2  0
 13 14  1  0
  9 15  1  0
 15 16  1  0
 15 17  2  0
 15 18  2  0
 13  7  1  0
 14  3  1  0
  1 19  1  0
  1 20  1  0
  1 21  1  0
  2 22  1  0
  2 23  1  0
  3 24  1  0
  4 25  1  0
  8 26  1  0
 12 27  1  0
 14 28  1  0
 16 29  1  0
 16 30  1  0
M  END
>  <Energy>  (10) 
-140.54774446734643

>  <Real charge>  (10) 
0

>  <Mult>  (10) 
1

$$$$
