mol_418 25
     RDKit          3D

 22 23  0  0  0  0  0  0  0  0999 V2000
    3.8055    1.6329    2.1073 Cl  0  0  0  0  0  0  0  0  0  0  0  0
    2.8552    0.6714    1.0271 C   0  0  0  0  0  0  0  0  0  0  0  0
    3.5397   -0.2276    0.2040 C   0  0  0  0  0  0  0  0  0  0  0  0
    2.8374   -1.0361   -0.6855 C   0  0  0  0  0  0  0  0  0  0  0  0
    1.4475   -0.9472   -0.7552 C   0  0  0  0  0  0  0  0  0  0  0  0
    0.7340   -0.0476    0.0605 C   0  0  0  0  0  0  0  0  0  0  0  0
    1.4554    0.7667    0.9621 C   0  0  0  0  0  0  0  0  0  0  0  0
    0.6008    1.8782    1.9915 Cl  0  0  0  0  0  0  0  0  0  0  0  0
   -0.7355    0.0043   -0.0607 C   0  0  0  0  0  0  0  0  0  0  0  0
   -1.5101   -0.8545    0.7431 C   0  0  0  0  0  0  0  0  0  0  0  0
   -2.9028   -0.8457    0.6729 C   0  0  0  0  0  0  0  0  0  0  0  0
   -3.5468    0.0213   -0.2054 C   0  0  0  0  0  0  0  0  0  0  0  0
   -2.8012    0.8816   -1.0167 C   0  0  0  0  0  0  0  0  0  0  0  0
   -3.6821    1.9211   -2.0835 Cl  0  0  0  0  0  0  0  0  0  0  0  0
   -1.3982    0.8787   -0.9511 C   0  0  0  0  0  0  0  0  0  0  0  0
   -0.4681    1.9418   -1.9659 Cl  0  0  0  0  0  0  0  0  0  0  0  0
    4.6239   -0.3007    0.2519 H   0  0  0  0  0  0  0  0  0  0  0  0
    3.3717   -1.7328   -1.3276 H   0  0  0  0  0  0  0  0  0  0  0  0
    0.9144   -1.5830   -1.4615 H   0  0  0  0  0  0  0  0  0  0  0  0
   -1.0227   -1.5351    1.4406 H   0  0  0  0  0  0  0  0  0  0  0  0
   -3.4845   -1.5122    1.3059 H   0  0  0  0  0  0  0  0  0  0  0  0
   -4.6335    0.0243   -0.2537 H   0  0  0  0  0  0  0  0  0  0  0  0
  1  2  1  0
  2  3  2  0
  3  4  1  0
  4  5  2  0
  5  6  1  0
  6  7  2  0
  7  8  1  0
  6  9  1  0
  9 10  2  0
 10 11  1  0
 11 12  2  0
 12 13  1  0
 13 14  1  0
 13 15  2  0
 15 16  1  0
  7  2  1  0
 15  9  1  0
  3 17  1  0
  4 18  1  0
  5 19  1  0
 10 20  1  0
 11 21  1  0
 12 22  1  0
M  END
>  <Energy>  (1) 
64.56390913701027

>  <Real charge>  (1) 
0

>  <Mult>  (1) 
1

$$$$
