mol_431 161
     RDKit          3D

 36 35  0  0  0  0  0  0  0  0999 V2000
   -0.6676    1.3664    2.3067 C   0  0  0  0  0  0  0  0  0  0  0  0
   -1.8860    0.4676    2.1570 C   0  0  0  0  0  0  0  0  0  0  0  0
   -1.7266   -0.4962    1.0525 N   0  0  0  0  0  0  0  0  0  0  0  0
   -2.2381   -0.0218   -0.2456 C   0  0  0  0  0  0  0  0  0  0  0  0
   -3.7126   -0.3485   -0.4324 C   0  0  0  0  0  0  0  0  0  0  0  0
   -1.1856   -1.7832    1.2630 C   0  0  0  0  0  0  0  0  0  0  0  0
   -0.6503   -2.3766    2.7529 S   0  0  0  0  0  0  0  0  0  0  0  0
   -1.1243   -2.8686   -0.1417 S   0  0  0  0  0  0  0  0  0  0  0  0
    0.8925   -2.8908   -0.6000 S   0  0  0  0  0  0  0  0  0  0  0  0
    1.0538   -1.4936   -1.6851 C   0  0  0  0  0  0  0  0  0  0  0  0
    0.4884   -1.6466   -3.2710 S   0  0  0  0  0  0  0  0  0  0  0  0
    1.6925   -0.3487   -1.1613 N   0  0  0  0  0  0  0  0  0  0  0  0
    1.9389    0.8475   -1.9876 C   0  0  0  0  0  0  0  0  0  0  0  0
    0.7970    1.8483   -1.8926 C   0  0  0  0  0  0  0  0  0  0  0  0
    2.2268   -0.2601    0.2093 C   0  0  0  0  0  0  0  0  0  0  0  0
    3.6689   -0.7389    0.2923 C   0  0  0  0  0  0  0  0  0  0  0  0
   -0.8208    2.0788    3.1231 H   0  0  0  0  0  0  0  0  0  0  0  0
    0.2339    0.7868    2.5259 H   0  0  0  0  0  0  0  0  0  0  0  0
   -0.4826    1.9348    1.3900 H   0  0  0  0  0  0  0  0  0  0  0  0
   -2.0804   -0.0521    3.0992 H   0  0  0  0  0  0  0  0  0  0  0  0
   -2.7746    1.0800    1.9643 H   0  0  0  0  0  0  0  0  0  0  0  0
   -2.0881    1.0626   -0.3033 H   0  0  0  0  0  0  0  0  0  0  0  0
   -1.6611   -0.4457   -1.0679 H   0  0  0  0  0  0  0  0  0  0  0  0
   -3.8946   -1.4264   -0.3878 H   0  0  0  0  0  0  0  0  0  0  0  0
   -4.0606    0.0165   -1.4036 H   0  0  0  0  0  0  0  0  0  0  0  0
   -4.3229    0.1218    0.3453 H   0  0  0  0  0  0  0  0  0  0  0  0
    2.8711    1.3190   -1.6553 H   0  0  0  0  0  0  0  0  0  0  0  0
    2.1012    0.5693   -3.0326 H   0  0  0  0  0  0  0  0  0  0  0  0
    1.0143    2.7297   -2.5038 H   0  0  0  0  0  0  0  0  0  0  0  0
   -0.1453    1.4162   -2.2421 H   0  0  0  0  0  0  0  0  0  0  0  0
    0.6481    2.1791   -0.8602 H   0  0  0  0  0  0  0  0  0  0  0  0
    1.6097   -0.8312    0.9035 H   0  0  0  0  0  0  0  0  0  0  0  0
    2.1624    0.7828    0.5410 H   0  0  0  0  0  0  0  0  0  0  0  0
    4.3222   -0.1369   -0.3473 H   0  0  0  0  0  0  0  0  0  0  0  0
    4.0347   -0.6601    1.3207 H   0  0  0  0  0  0  0  0  0  0  0  0
    3.7655   -1.7814   -0.0254 H   0  0  0  0  0  0  0  0  0  0  0  0
  1  2  1  0
  2  3  1  0
  3  4  1  0
  4  5  1  0
  3  6  1  0
  6  7  2  0
  6  8  1  0
  8  9  1  0
  9 10  1  0
 10 11  2  0
 10 12  1  0
 12 13  1  0
 13 14  1  0
 12 15  1  0
 15 16  1  0
  1 17  1  0
  1 18  1  0
  1 19  1  0
  2 20  1  0
  2 21  1  0
  4 22  1  0
  4 23  1  0
  5 24  1  0
  5 25  1  0
  5 26  1  0
 13 27  1  0
 13 28  1  0
 14 29  1  0
 14 30  1  0
 14 31  1  0
 15 32  1  0
 15 33  1  0
 16 34  1  0
 16 35  1  0
 16 36  1  0
M  END
>  <Energy>  (1) 
-16.21891491523909

>  <Real charge>  (1) 
0

>  <Mult>  (1) 
1

$$$$
mol_431 283
     RDKit          3D

 36 35  0  0  0  0  0  0  0  0999 V2000
   -4.3459    0.7769    1.3630 C   0  0  0  0  0  0  0  0  0  0  0  0
   -3.2612    0.3207    0.3978 C   0  0  0  0  0  0  0  0  0  0  0  0
   -2.1255   -0.3018    1.1033 N   0  0  0  0  0  0  0  0  0  0  0  0
   -2.2630   -1.7552    1.3100 C   0  0  0  0  0  0  0  0  0  0  0  0
   -1.6307   -2.5477    0.1753 C   0  0  0  0  0  0  0  0  0  0  0  0
   -1.0225    0.4179    1.6121 C   0  0  0  0  0  0  0  0  0  0  0  0
    0.2297   -0.2442    2.5305 S   0  0  0  0  0  0  0  0  0  0  0  0
   -0.9748    2.1628    1.2959 S   0  0  0  0  0  0  0  0  0  0  0  0
   -0.1372    2.2299   -0.5943 S   0  0  0  0  0  0  0  0  0  0  0  0
    1.6060    2.1551   -0.2480 C   0  0  0  0  0  0  0  0  0  0  0  0
    2.3460    3.5106    0.4381 S   0  0  0  0  0  0  0  0  0  0  0  0
    2.2755    0.9747   -0.6379 N   0  0  0  0  0  0  0  0  0  0  0  0
    1.6118   -0.1796   -1.2693 C   0  0  0  0  0  0  0  0  0  0  0  0
    1.6174   -0.0764   -2.7876 C   0  0  0  0  0  0  0  0  0  0  0  0
    3.7269    0.8076   -0.4383 C   0  0  0  0  0  0  0  0  0  0  0  0
    4.0504    0.1783    0.9089 C   0  0  0  0  0  0  0  0  0  0  0  0
   -5.1769    1.2285    0.8124 H   0  0  0  0  0  0  0  0  0  0  0  0
   -4.7393   -0.0653    1.9412 H   0  0  0  0  0  0  0  0  0  0  0  0
   -3.9654    1.5167    2.0739 H   0  0  0  0  0  0  0  0  0  0  0  0
   -3.6753   -0.4096   -0.3074 H   0  0  0  0  0  0  0  0  0  0  0  0
   -2.9331    1.1653   -0.2104 H   0  0  0  0  0  0  0  0  0  0  0  0
   -1.8197   -2.0558    2.2631 H   0  0  0  0  0  0  0  0  0  0  0  0
   -3.3287   -2.0015    1.3842 H   0  0  0  0  0  0  0  0  0  0  0  0
   -1.7686   -3.6208    0.3401 H   0  0  0  0  0  0  0  0  0  0  0  0
   -0.5572   -2.3508    0.0993 H   0  0  0  0  0  0  0  0  0  0  0  0
   -2.0843   -2.2892   -0.7869 H   0  0  0  0  0  0  0  0  0  0  0  0
    2.1293   -1.0944   -0.9577 H   0  0  0  0  0  0  0  0  0  0  0  0
    0.5847   -0.2830   -0.9141 H   0  0  0  0  0  0  0  0  0  0  0  0
    1.0996    0.8245   -3.1304 H   0  0  0  0  0  0  0  0  0  0  0  0
    2.6398   -0.0385   -3.1770 H   0  0  0  0  0  0  0  0  0  0  0  0
    1.1185   -0.9454   -3.2275 H   0  0  0  0  0  0  0  0  0  0  0  0
    4.1211    0.1779   -1.2445 H   0  0  0  0  0  0  0  0  0  0  0  0
    4.2421    1.7676   -0.5304 H   0  0  0  0  0  0  0  0  0  0  0  0
    5.1328    0.0628    1.0221 H   0  0  0  0  0  0  0  0  0  0  0  0
    3.6853    0.7932    1.7369 H   0  0  0  0  0  0  0  0  0  0  0  0
    3.5923   -0.8115    1.0021 H   0  0  0  0  0  0  0  0  0  0  0  0
  1  2  1  0
  2  3  1  0
  3  4  1  0
  4  5  1  0
  3  6  1  0
  6  7  2  0
  6  8  1  0
  8  9  1  0
  9 10  1  0
 10 11  2  0
 10 12  1  0
 12 13  1  0
 13 14  1  0
 12 15  1  0
 15 16  1  0
  1 17  1  0
  1 18  1  0
  1 19  1  0
  2 20  1  0
  2 21  1  0
  4 22  1  0
  4 23  1  0
  5 24  1  0
  5 25  1  0
  5 26  1  0
 13 27  1  0
 13 28  1  0
 14 29  1  0
 14 30  1  0
 14 31  1  0
 15 32  1  0
 15 33  1  0
 16 34  1  0
 16 35  1  0
 16 36  1  0
M  END
>  <Energy>  (2) 
-15.562210264497365

>  <Real charge>  (2) 
0

>  <Mult>  (2) 
1

$$$$
