mol_931 89
     RDKit          3D

 30 30  0  0  0  0  0  0  0  0999 V2000
   -2.6810    1.1822   -0.0425 C   0  0  0  0  0  0  0  0  0  0  0  0
   -1.2966    0.5706   -0.0411 C   0  0  0  0  0  0  0  0  0  0  0  0
   -1.1428   -0.8380    0.0062 C   0  0  0  0  0  0  0  0  0  0  0  0
   -2.3615   -1.7349   -0.0297 C   0  0  0  0  0  0  0  0  0  0  0  0
    0.1522   -1.4041    0.1170 C   0  0  0  0  0  0  0  0  0  0  0  0
    0.3138   -2.8997    0.2844 C   0  0  0  0  0  0  0  0  0  0  0  0
    1.2966   -0.5706    0.0411 C   0  0  0  0  0  0  0  0  0  0  0  0
    2.6810   -1.1822    0.0425 C   0  0  0  0  0  0  0  0  0  0  0  0
    1.1428    0.8380   -0.0062 C   0  0  0  0  0  0  0  0  0  0  0  0
    2.3615    1.7349    0.0297 C   0  0  0  0  0  0  0  0  0  0  0  0
   -0.1522    1.4041   -0.1170 C   0  0  0  0  0  0  0  0  0  0  0  0
   -0.3138    2.8997   -0.2844 C   0  0  0  0  0  0  0  0  0  0  0  0
   -3.3904    0.5795    0.5334 H   0  0  0  0  0  0  0  0  0  0  0  0
   -2.6915    2.1614    0.4464 H   0  0  0  0  0  0  0  0  0  0  0  0
   -3.0449    1.2866   -1.0690 H   0  0  0  0  0  0  0  0  0  0  0  0
   -2.1457   -2.6916   -0.5156 H   0  0  0  0  0  0  0  0  0  0  0  0
   -3.1679   -1.2984   -0.6272 H   0  0  0  0  0  0  0  0  0  0  0  0
   -2.7229   -1.9188    0.9865 H   0  0  0  0  0  0  0  0  0  0  0  0
   -0.5175   -3.3361    0.8469 H   0  0  0  0  0  0  0  0  0  0  0  0
    0.3807   -3.3825   -0.6952 H   0  0  0  0  0  0  0  0  0  0  0  0
    1.2036   -3.1475    0.8715 H   0  0  0  0  0  0  0  0  0  0  0  0
    3.3904   -0.5795   -0.5334 H   0  0  0  0  0  0  0  0  0  0  0  0
    2.6915   -2.1614   -0.4464 H   0  0  0  0  0  0  0  0  0  0  0  0
    3.0449   -1.2865    1.0690 H   0  0  0  0  0  0  0  0  0  0  0  0
    2.7229    1.9188   -0.9865 H   0  0  0  0  0  0  0  0  0  0  0  0
    3.1679    1.2984    0.6272 H   0  0  0  0  0  0  0  0  0  0  0  0
    2.1457    2.6916    0.5156 H   0  0  0  0  0  0  0  0  0  0  0  0
    0.5175    3.3361   -0.8469 H   0  0  0  0  0  0  0  0  0  0  0  0
   -1.2036    3.1475   -0.8715 H   0  0  0  0  0  0  0  0  0  0  0  0
   -0.3807    3.3825    0.6952 H   0  0  0  0  0  0  0  0  0  0  0  0
  1  2  1  0
  2  3  2  0
  3  4  1  0
  3  5  1  0
  5  6  1  0
  5  7  2  0
  7  8  1  0
  7  9  1  0
  9 10  1  0
  9 11  2  0
 11 12  1  0
 11  2  1  0
  1 13  1  0
  1 14  1  0
  1 15  1  0
  4 16  1  0
  4 17  1  0
  4 18  1  0
  6 19  1  0
  6 20  1  0
  6 21  1  0
  8 22  1  0
  8 23  1  0
  8 24  1  0
 10 25  1  0
 10 26  1  0
 10 27  1  0
 12 28  1  0
 12 29  1  0
 12 30  1  0
M  END
>  <Energy>  (1) 
45.7154413040189

>  <Real charge>  (1) 
0

>  <Mult>  (1) 
1

$$$$
