mol_956 11
     RDKit          3D

 14 14  0  0  0  0  0  0  0  0999 V2000
   -1.4819   -0.1576   -0.1292 C   0  0  0  0  0  0  0  0  0  0  0  0
   -0.5386   -1.3199    0.0123 C   0  0  0  0  0  0  0  0  0  0  0  0
    0.7920   -1.1784    0.1284 C   0  0  0  0  0  0  0  0  0  0  0  0
    1.4819    0.1576    0.1292 C   0  0  0  0  0  0  0  0  0  0  0  0
    0.5386    1.3199   -0.0123 C   0  0  0  0  0  0  0  0  0  0  0  0
   -0.7920    1.1784   -0.1284 C   0  0  0  0  0  0  0  0  0  0  0  0
   -2.0418   -0.2671   -1.0648 H   0  0  0  0  0  0  0  0  0  0  0  0
   -2.2040   -0.1844    0.6945 H   0  0  0  0  0  0  0  0  0  0  0  0
   -0.9770   -2.3138    0.0186 H   0  0  0  0  0  0  0  0  0  0  0  0
    1.4205   -2.0589    0.2277 H   0  0  0  0  0  0  0  0  0  0  0  0
    2.2040    0.1844   -0.6945 H   0  0  0  0  0  0  0  0  0  0  0  0
    2.0418    0.2671    1.0648 H   0  0  0  0  0  0  0  0  0  0  0  0
    0.9770    2.3138   -0.0186 H   0  0  0  0  0  0  0  0  0  0  0  0
   -1.4205    2.0589   -0.2277 H   0  0  0  0  0  0  0  0  0  0  0  0
  1  2  1  0
  2  3  2  0
  3  4  1  0
  4  5  1  0
  5  6  2  0
  6  1  1  0
  1  7  1  0
  1  8  1  0
  2  9  1  0
  3 10  1  0
  4 11  1  0
  4 12  1  0
  5 13  1  0
  6 14  1  0
M  END
>  <Energy>  (1) 
11.555946974516448

>  <Real charge>  (1) 
0

>  <Mult>  (1) 
1

$$$$
