mol_467 7
     RDKit          3D

 12 12  0  0  0  0  0  0  0  0999 V2000
    1.6400    2.5939   -0.0976 Cl  0  0  0  0  0  0  0  0  0  0  0  0
    0.6809    1.1215   -0.0425 C   0  0  0  0  0  0  0  0  0  0  0  0
   -0.7158    1.2248   -0.0631 C   0  0  0  0  0  0  0  0  0  0  0  0
   -1.5077    0.0739   -0.0206 C   0  0  0  0  0  0  0  0  0  0  0  0
   -0.9072   -1.1858    0.0428 C   0  0  0  0  0  0  0  0  0  0  0  0
    0.4859   -1.2962    0.0637 C   0  0  0  0  0  0  0  0  0  0  0  0
    1.2864   -0.1476    0.0214 C   0  0  0  0  0  0  0  0  0  0  0  0
    3.3909   -0.3877    0.0562 I   0  0  0  0  0  0  0  0  0  0  0  0
   -1.1890    2.1973   -0.1122 H   0  0  0  0  0  0  0  0  0  0  0  0
   -2.5867    0.1586   -0.0367 H   0  0  0  0  0  0  0  0  0  0  0  0
   -1.5211   -2.0766    0.0757 H   0  0  0  0  0  0  0  0  0  0  0  0
    0.9435   -2.2759    0.1129 H   0  0  0  0  0  0  0  0  0  0  0  0
  1  2  1  0
  2  3  2  0
  3  4  1  0
  4  5  2  0
  5  6  1  0
  6  7  2  0
  7  8  1  0
  7  2  1  0
  3  9  1  0
  4 10  1  0
  5 11  1  0
  6 12  1  0
M  END
>  <Energy>  (1) 
11.693410452653533

>  <Real charge>  (1) 
0

>  <Mult>  (1) 
1

$$$$
