mol_354 481
     RDKit          3D

 42 43  0  0  0  0  0  0  0  0999 V2000
    1.1592   -3.0249    0.2541 C   0  0  0  0  0  0  0  0  0  0  0  0
    0.3357   -1.8250    0.7126 C   0  0  0  0  0  0  0  0  0  0  0  0
    0.4832   -0.5840   -0.2099 C   0  0  0  0  0  0  0  0  0  0  0  0
   -0.4832    0.5840    0.2099 C   0  0  0  0  0  0  0  0  0  0  0  0
   -0.3357    1.8250   -0.7126 C   0  0  0  0  0  0  0  0  0  0  0  0
   -1.1592    3.0249   -0.2541 C   0  0  0  0  0  0  0  0  0  0  0  0
   -1.9412    0.1276    0.2561 C   0  0  0  0  0  0  0  0  0  0  0  0
   -2.6064   -0.3302   -0.8929 C   0  0  0  0  0  0  0  0  0  0  0  0
   -3.9376   -0.7443   -0.8250 C   0  0  0  0  0  0  0  0  0  0  0  0
   -4.6116   -0.7027    0.3883 C   0  0  0  0  0  0  0  0  0  0  0  0
   -5.9106   -1.1166    0.4085 O   0  0  0  0  0  0  0  0  0  0  0  0
   -3.9764   -0.2522    1.5398 C   0  0  0  0  0  0  0  0  0  0  0  0
   -2.6439    0.1622    1.4723 C   0  0  0  0  0  0  0  0  0  0  0  0
    1.9412   -0.1276   -0.2560 C   0  0  0  0  0  0  0  0  0  0  0  0
    2.6439   -0.1622   -1.4723 C   0  0  0  0  0  0  0  0  0  0  0  0
    3.9763    0.2522   -1.5398 C   0  0  0  0  0  0  0  0  0  0  0  0
    4.6116    0.7027   -0.3883 C   0  0  0  0  0  0  0  0  0  0  0  0
    5.9106    1.1166   -0.4086 O   0  0  0  0  0  0  0  0  0  0  0  0
    3.9376    0.7443    0.8249 C   0  0  0  0  0  0  0  0  0  0  0  0
    2.6064    0.3302    0.8929 C   0  0  0  0  0  0  0  0  0  0  0  0
    2.2335   -2.8317    0.3251 H   0  0  0  0  0  0  0  0  0  0  0  0
    0.9384   -3.8921    0.8851 H   0  0  0  0  0  0  0  0  0  0  0  0
    0.9209   -3.2912   -0.7806 H   0  0  0  0  0  0  0  0  0  0  0  0
    0.6084   -1.5761    1.7452 H   0  0  0  0  0  0  0  0  0  0  0  0
   -0.7101   -2.1499    0.7382 H   0  0  0  0  0  0  0  0  0  0  0  0
    0.1981   -0.9044   -1.2219 H   0  0  0  0  0  0  0  0  0  0  0  0
   -0.1981    0.9044    1.2219 H   0  0  0  0  0  0  0  0  0  0  0  0
   -0.6084    1.5760   -1.7452 H   0  0  0  0  0  0  0  0  0  0  0  0
    0.7102    2.1499   -0.7381 H   0  0  0  0  0  0  0  0  0  0  0  0
   -2.2335    2.8317   -0.3250 H   0  0  0  0  0  0  0  0  0  0  0  0
   -0.9384    3.8921   -0.8850 H   0  0  0  0  0  0  0  0  0  0  0  0
   -0.9209    3.2912    0.7806 H   0  0  0  0  0  0  0  0  0  0  0  0
   -2.0962   -0.3679   -1.8522 H   0  0  0  0  0  0  0  0  0  0  0  0
   -4.4469   -1.0972   -1.7171 H   0  0  0  0  0  0  0  0  0  0  0  0
   -6.2480   -1.0273    1.3146 H   0  0  0  0  0  0  0  0  0  0  0  0
   -4.4955   -0.2153    2.4920 H   0  0  0  0  0  0  0  0  0  0  0  0
   -2.1558    0.5138    2.3788 H   0  0  0  0  0  0  0  0  0  0  0  0
    2.1558   -0.5138   -2.3788 H   0  0  0  0  0  0  0  0  0  0  0  0
    4.4954    0.2154   -2.4920 H   0  0  0  0  0  0  0  0  0  0  0  0
    6.2480    1.0273   -1.3147 H   0  0  0  0  0  0  0  0  0  0  0  0
    4.4469    1.0973    1.7170 H   0  0  0  0  0  0  0  0  0  0  0  0
    2.0963    0.3679    1.8522 H   0  0  0  0  0  0  0  0  0  0  0  0
  1  2  1  0
  2  3  1  0
  3  4  1  0
  4  5  1  0
  5  6  1  0
  4  7  1  0
  7  8  2  0
  8  9  1  0
  9 10  2  0
 10 11  1  0
 10 12  1  0
 12 13  2  0
  3 14  1  0
 14 15  2  0
 15 16  1  0
 16 17  2  0
 17 18  1  0
 17 19  1  0
 19 20  2  0
 13  7  1  0
 20 14  1  0
  1 21  1  0
  1 22  1  0
  1 23  1  0
  2 24  1  0
  2 25  1  0
  3 26  1  0
  4 27  1  0
  5 28  1  0
  5 29  1  0
  6 30  1  0
  6 31  1  0
  6 32  1  0
  8 33  1  0
  9 34  1  0
 11 35  1  0
 12 36  1  0
 13 37  1  0
 15 38  1  0
 16 39  1  0
 18 40  1  0
 19 41  1  0
 20 42  1  0
M  END
>  <Energy>  (1) 
33.059317461541475

>  <Real charge>  (1) 
0

>  <Mult>  (1) 
1

$$$$
mol_354 194
     RDKit          3D

 42 43  0  0  0  0  0  0  0  0999 V2000
   -2.1311   -2.2020    1.9923 C   0  0  0  0  0  0  0  0  0  0  0  0
   -0.7761   -1.8811    1.3696 C   0  0  0  0  0  0  0  0  0  0  0  0
   -0.8880   -1.2503   -0.0433 C   0  0  0  0  0  0  0  0  0  0  0  0
    0.4979   -1.2462   -0.7865 C   0  0  0  0  0  0  0  0  0  0  0  0
    0.3316   -0.9635   -2.3028 C   0  0  0  0  0  0  0  0  0  0  0  0
    1.5890   -1.2676   -3.1111 C   0  0  0  0  0  0  0  0  0  0  0  0
    1.5721   -0.3909   -0.1197 C   0  0  0  0  0  0  0  0  0  0  0  0
    1.6950    0.9868   -0.3627 C   0  0  0  0  0  0  0  0  0  0  0  0
    2.6902    1.7424    0.2637 C   0  0  0  0  0  0  0  0  0  0  0  0
    3.5721    1.1213    1.1393 C   0  0  0  0  0  0  0  0  0  0  0  0
    4.5570    1.8201    1.7717 O   0  0  0  0  0  0  0  0  0  0  0  0
    3.4739   -0.2386    1.3969 C   0  0  0  0  0  0  0  0  0  0  0  0
    2.4799   -0.9919    0.7693 C   0  0  0  0  0  0  0  0  0  0  0  0
   -1.6192    0.0895   -0.0582 C   0  0  0  0  0  0  0  0  0  0  0  0
   -2.5818    0.3397   -1.0513 C   0  0  0  0  0  0  0  0  0  0  0  0
   -3.2683    1.5547   -1.0943 C   0  0  0  0  0  0  0  0  0  0  0  0
   -3.0017    2.5294   -0.1433 C   0  0  0  0  0  0  0  0  0  0  0  0
   -3.6943    3.7011   -0.2202 O   0  0  0  0  0  0  0  0  0  0  0  0
   -2.0571    2.3097    0.8514 C   0  0  0  0  0  0  0  0  0  0  0  0
   -1.3700    1.0930    0.8921 C   0  0  0  0  0  0  0  0  0  0  0  0
   -2.7168   -1.2973    2.1786 H   0  0  0  0  0  0  0  0  0  0  0  0
   -1.9905   -2.7101    2.9518 H   0  0  0  0  0  0  0  0  0  0  0  0
   -2.7140   -2.8635    1.3434 H   0  0  0  0  0  0  0  0  0  0  0  0
   -0.2149   -1.2381    2.0559 H   0  0  0  0  0  0  0  0  0  0  0  0
   -0.2152   -2.8215    1.2962 H   0  0  0  0  0  0  0  0  0  0  0  0
   -1.5209   -1.9524   -0.6083 H   0  0  0  0  0  0  0  0  0  0  0  0
    0.8587   -2.2855   -0.7387 H   0  0  0  0  0  0  0  0  0  0  0  0
   -0.4749   -1.5951   -2.6963 H   0  0  0  0  0  0  0  0  0  0  0  0
    0.0329    0.0733   -2.4901 H   0  0  0  0  0  0  0  0  0  0  0  0
    1.3919   -1.1211   -4.1780 H   0  0  0  0  0  0  0  0  0  0  0  0
    2.4186   -0.6110   -2.8337 H   0  0  0  0  0  0  0  0  0  0  0  0
    1.9063   -2.3053   -2.9669 H   0  0  0  0  0  0  0  0  0  0  0  0
    1.0084    1.4937   -1.0373 H   0  0  0  0  0  0  0  0  0  0  0  0
    2.7557    2.8055    0.0559 H   0  0  0  0  0  0  0  0  0  0  0  0
    4.5187    2.7433    1.4730 H   0  0  0  0  0  0  0  0  0  0  0  0
    4.1697   -0.7137    2.0822 H   0  0  0  0  0  0  0  0  0  0  0  0
    2.4207   -2.0572    0.9817 H   0  0  0  0  0  0  0  0  0  0  0  0
   -2.8067   -0.4131   -1.8037 H   0  0  0  0  0  0  0  0  0  0  0  0
   -4.0098    1.7371   -1.8666 H   0  0  0  0  0  0  0  0  0  0  0  0
   -3.4233    4.2671    0.5207 H   0  0  0  0  0  0  0  0  0  0  0  0
   -1.8384    3.0649    1.5992 H   0  0  0  0  0  0  0  0  0  0  0  0
   -0.6275    0.9443    1.6731 H   0  0  0  0  0  0  0  0  0  0  0  0
  1  2  1  0
  2  3  1  0
  3  4  1  0
  4  5  1  0
  5  6  1  0
  4  7  1  0
  7  8  2  0
  8  9  1  0
  9 10  2  0
 10 11  1  0
 10 12  1  0
 12 13  2  0
  3 14  1  0
 14 15  2  0
 15 16  1  0
 16 17  2  0
 17 18  1  0
 17 19  1  0
 19 20  2  0
 13  7  1  0
 20 14  1  0
  1 21  1  0
  1 22  1  0
  1 23  1  0
  2 24  1  0
  2 25  1  0
  3 26  1  0
  4 27  1  0
  5 28  1  0
  5 29  1  0
  6 30  1  0
  6 31  1  0
  6 32  1  0
  8 33  1  0
  9 34  1  0
 11 35  1  0
 12 36  1  0
 13 37  1  0
 15 38  1  0
 16 39  1  0
 18 40  1  0
 19 41  1  0
 20 42  1  0
M  END
>  <Energy>  (2) 
33.5114821171653

>  <Real charge>  (2) 
0

>  <Mult>  (2) 
1

$$$$
mol_354 521
     RDKit          3D

 42 43  0  0  0  0  0  0  0  0999 V2000
   -2.3472   -2.9556   -0.9163 C   0  0  0  0  0  0  0  0  0  0  0  0
   -1.1484   -2.6346   -0.0293 C   0  0  0  0  0  0  0  0  0  0  0  0
   -0.5187   -1.2509   -0.3366 C   0  0  0  0  0  0  0  0  0  0  0  0
    0.8883   -1.0998    0.3457 C   0  0  0  0  0  0  0  0  0  0  0  0
    0.8567   -1.0607    1.8927 C   0  0  0  0  0  0  0  0  0  0  0  0
    2.2402   -1.2119    2.5192 C   0  0  0  0  0  0  0  0  0  0  0  0
    1.6910    0.0382   -0.2860 C   0  0  0  0  0  0  0  0  0  0  0  0
    2.5652   -0.2448   -1.3494 C   0  0  0  0  0  0  0  0  0  0  0  0
    3.3015    0.7727   -1.9591 C   0  0  0  0  0  0  0  0  0  0  0  0
    3.1670    2.0805   -1.5145 C   0  0  0  0  0  0  0  0  0  0  0  0
    3.9034    3.0441   -2.1375 O   0  0  0  0  0  0  0  0  0  0  0  0
    2.3043    2.3899   -0.4701 C   0  0  0  0  0  0  0  0  0  0  0  0
    1.5678    1.3707    0.1398 C   0  0  0  0  0  0  0  0  0  0  0  0
   -1.4749   -0.0905   -0.0730 C   0  0  0  0  0  0  0  0  0  0  0  0
   -1.6392    0.9015   -1.0565 C   0  0  0  0  0  0  0  0  0  0  0  0
   -2.5006    1.9824   -0.8535 C   0  0  0  0  0  0  0  0  0  0  0  0
   -3.2069    2.0769    0.3388 C   0  0  0  0  0  0  0  0  0  0  0  0
   -4.0577    3.1141    0.5812 O   0  0  0  0  0  0  0  0  0  0  0  0
   -3.0641    1.1110    1.3254 C   0  0  0  0  0  0  0  0  0  0  0  0
   -2.2026    0.0307    1.1208 C   0  0  0  0  0  0  0  0  0  0  0  0
   -2.7065   -3.9685   -0.7074 H   0  0  0  0  0  0  0  0  0  0  0  0
   -3.1775   -2.2656   -0.7399 H   0  0  0  0  0  0  0  0  0  0  0  0
   -2.0757   -2.9065   -1.9756 H   0  0  0  0  0  0  0  0  0  0  0  0
   -0.3947   -3.4149   -0.1936 H   0  0  0  0  0  0  0  0  0  0  0  0
   -1.4554   -2.7161    1.0185 H   0  0  0  0  0  0  0  0  0  0  0  0
   -0.3303   -1.2635   -1.4215 H   0  0  0  0  0  0  0  0  0  0  0  0
    1.4372   -2.0216    0.0983 H   0  0  0  0  0  0  0  0  0  0  0  0
    0.2383   -1.8828    2.2693 H   0  0  0  0  0  0  0  0  0  0  0  0
    0.4065   -0.1349    2.2646 H   0  0  0  0  0  0  0  0  0  0  0  0
    2.1549   -1.2441    3.6102 H   0  0  0  0  0  0  0  0  0  0  0  0
    2.7197   -2.1398    2.1916 H   0  0  0  0  0  0  0  0  0  0  0  0
    2.8956   -0.3747    2.2621 H   0  0  0  0  0  0  0  0  0  0  0  0
    2.6808   -1.2635   -1.7126 H   0  0  0  0  0  0  0  0  0  0  0  0
    3.9771    0.5439   -2.7781 H   0  0  0  0  0  0  0  0  0  0  0  0
    3.7229    3.8947   -1.7052 H   0  0  0  0  0  0  0  0  0  0  0  0
    2.1848    3.4098   -0.1193 H   0  0  0  0  0  0  0  0  0  0  0  0
    0.8840    1.6350    0.9434 H   0  0  0  0  0  0  0  0  0  0  0  0
   -1.0828    0.8423   -1.9905 H   0  0  0  0  0  0  0  0  0  0  0  0
   -2.6008    2.7324   -1.6312 H   0  0  0  0  0  0  0  0  0  0  0  0
   -4.0715    3.6887   -0.2014 H   0  0  0  0  0  0  0  0  0  0  0  0
   -3.6226    1.1962    2.2531 H   0  0  0  0  0  0  0  0  0  0  0  0
   -2.1093   -0.7104    1.9100 H   0  0  0  0  0  0  0  0  0  0  0  0
  1  2  1  0
  2  3  1  0
  3  4  1  0
  4  5  1  0
  5  6  1  0
  4  7  1  0
  7  8  2  0
  8  9  1  0
  9 10  2  0
 10 11  1  0
 10 12  1  0
 12 13  2  0
  3 14  1  0
 14 15  2  0
 15 16  1  0
 16 17  2  0
 17 18  1  0
 17 19  1  0
 19 20  2  0
 13  7  1  0
 20 14  1  0
  1 21  1  0
  1 22  1  0
  1 23  1  0
  2 24  1  0
  2 25  1  0
  3 26  1  0
  4 27  1  0
  5 28  1  0
  5 29  1  0
  6 30  1  0
  6 31  1  0
  6 32  1  0
  8 33  1  0
  9 34  1  0
 11 35  1  0
 12 36  1  0
 13 37  1  0
 15 38  1  0
 16 39  1  0
 18 40  1  0
 19 41  1  0
 20 42  1  0
M  END
>  <Energy>  (3) 
33.8246059416075

>  <Real charge>  (3) 
0

>  <Mult>  (3) 
1

$$$$
mol_354 345
     RDKit          3D

 42 43  0  0  0  0  0  0  0  0999 V2000
    1.3678   -3.3626    0.3064 C   0  0  0  0  0  0  0  0  0  0  0  0
    0.1970   -2.4224    0.0378 C   0  0  0  0  0  0  0  0  0  0  0  0
    0.6091   -1.1382   -0.7285 C   0  0  0  0  0  0  0  0  0  0  0  0
   -0.6436   -0.3666   -1.2840 C   0  0  0  0  0  0  0  0  0  0  0  0
   -0.2359    0.7248   -2.3081 C   0  0  0  0  0  0  0  0  0  0  0  0
   -1.4158    1.2676   -3.1081 C   0  0  0  0  0  0  0  0  0  0  0  0
   -1.6104    0.1325   -0.2138 C   0  0  0  0  0  0  0  0  0  0  0  0
   -2.7335   -0.6453    0.1203 C   0  0  0  0  0  0  0  0  0  0  0  0
   -3.6405   -0.2208    1.0951 C   0  0  0  0  0  0  0  0  0  0  0  0
   -3.4296    0.9898    1.7431 C   0  0  0  0  0  0  0  0  0  0  0  0
   -4.2869    1.4428    2.7014 O   0  0  0  0  0  0  0  0  0  0  0  0
   -2.3309    1.7777    1.4308 C   0  0  0  0  0  0  0  0  0  0  0  0
   -1.4262    1.3523    0.4554 C   0  0  0  0  0  0  0  0  0  0  0  0
    1.6073   -0.2690    0.0312 C   0  0  0  0  0  0  0  0  0  0  0  0
    1.4579    0.0307    1.3942 C   0  0  0  0  0  0  0  0  0  0  0  0
    2.3907    0.8309    2.0578 C   0  0  0  0  0  0  0  0  0  0  0  0
    3.4829    1.3352    1.3663 C   0  0  0  0  0  0  0  0  0  0  0  0
    4.3684    2.1119    2.0526 O   0  0  0  0  0  0  0  0  0  0  0  0
    3.6595    1.0528    0.0176 C   0  0  0  0  0  0  0  0  0  0  0  0
    2.7245    0.2530   -0.6450 C   0  0  0  0  0  0  0  0  0  0  0  0
    1.8696   -3.6402   -0.6260 H   0  0  0  0  0  0  0  0  0  0  0  0
    2.1062   -2.9104    0.9747 H   0  0  0  0  0  0  0  0  0  0  0  0
    1.0082   -4.2810    0.7815 H   0  0  0  0  0  0  0  0  0  0  0  0
   -0.2911   -2.1853    0.9891 H   0  0  0  0  0  0  0  0  0  0  0  0
   -0.5391   -2.9736   -0.5610 H   0  0  0  0  0  0  0  0  0  0  0  0
    1.1405   -1.5076   -1.6195 H   0  0  0  0  0  0  0  0  0  0  0  0
   -1.2005   -1.1079   -1.8783 H   0  0  0  0  0  0  0  0  0  0  0  0
    0.4776    0.2944   -3.0221 H   0  0  0  0  0  0  0  0  0  0  0  0
    0.2768    1.5620   -1.8227 H   0  0  0  0  0  0  0  0  0  0  0  0
   -1.9425    0.4602   -3.6267 H   0  0  0  0  0  0  0  0  0  0  0  0
   -2.1319    1.7927   -2.4694 H   0  0  0  0  0  0  0  0  0  0  0  0
   -1.0610    1.9772   -3.8625 H   0  0  0  0  0  0  0  0  0  0  0  0
   -2.9109   -1.5950   -0.3802 H   0  0  0  0  0  0  0  0  0  0  0  0
   -4.4966   -0.8444    1.3306 H   0  0  0  0  0  0  0  0  0  0  0  0
   -5.0005    0.7933    2.8083 H   0  0  0  0  0  0  0  0  0  0  0  0
   -2.1737    2.7214    1.9451 H   0  0  0  0  0  0  0  0  0  0  0  0
   -0.5692    1.9851    0.2365 H   0  0  0  0  0  0  0  0  0  0  0  0
    0.6069   -0.3442    1.9580 H   0  0  0  0  0  0  0  0  0  0  0  0
    2.2604    1.0596    3.1116 H   0  0  0  0  0  0  0  0  0  0  0  0
    5.0734    2.3865    1.4442 H   0  0  0  0  0  0  0  0  0  0  0  0
    4.5103    1.4410   -0.5327 H   0  0  0  0  0  0  0  0  0  0  0  0
    2.8752    0.0388   -1.7010 H   0  0  0  0  0  0  0  0  0  0  0  0
  1  2  1  0
  2  3  1  0
  3  4  1  0
  4  5  1  0
  5  6  1  0
  4  7  1  0
  7  8  2  0
  8  9  1  0
  9 10  2  0
 10 11  1  0
 10 12  1  0
 12 13  2  0
  3 14  1  0
 14 15  2  0
 15 16  1  0
 16 17  2  0
 17 18  1  0
 17 19  1  0
 19 20  2  0
 13  7  1  0
 20 14  1  0
  1 21  1  0
  1 22  1  0
  1 23  1  0
  2 24  1  0
  2 25  1  0
  3 26  1  0
  4 27  1  0
  5 28  1  0
  5 29  1  0
  6 30  1  0
  6 31  1  0
  6 32  1  0
  8 33  1  0
  9 34  1  0
 11 35  1  0
 12 36  1  0
 13 37  1  0
 15 38  1  0
 16 39  1  0
 18 40  1  0
 19 41  1  0
 20 42  1  0
M  END
>  <Energy>  (4) 
33.95263015249337

>  <Real charge>  (4) 
0

>  <Mult>  (4) 
1

$$$$
mol_354 312
     RDKit          3D

 42 43  0  0  0  0  0  0  0  0999 V2000
   -1.3507   -1.5315    2.8845 C   0  0  0  0  0  0  0  0  0  0  0  0
   -0.2297   -1.2302    1.8935 C   0  0  0  0  0  0  0  0  0  0  0  0
   -0.7240   -1.1572    0.4287 C   0  0  0  0  0  0  0  0  0  0  0  0
    0.4180   -1.1509   -0.6504 C   0  0  0  0  0  0  0  0  0  0  0  0
    1.1566   -2.5143   -0.6930 C   0  0  0  0  0  0  0  0  0  0  0  0
    2.0504   -2.6720   -1.9191 C   0  0  0  0  0  0  0  0  0  0  0  0
    1.3700    0.0390   -0.5552 C   0  0  0  0  0  0  0  0  0  0  0  0
    1.1935    1.1303   -1.4237 C   0  0  0  0  0  0  0  0  0  0  0  0
    2.0394    2.2390   -1.3635 C   0  0  0  0  0  0  0  0  0  0  0  0
    3.0723    2.2657   -0.4376 C   0  0  0  0  0  0  0  0  0  0  0  0
    3.8757    3.3667   -0.4107 O   0  0  0  0  0  0  0  0  0  0  0  0
    3.2731    1.2001    0.4315 C   0  0  0  0  0  0  0  0  0  0  0  0
    2.4237    0.0912    0.3713 C   0  0  0  0  0  0  0  0  0  0  0  0
   -1.7350   -0.0387    0.1745 C   0  0  0  0  0  0  0  0  0  0  0  0
   -2.8877   -0.3123   -0.5816 C   0  0  0  0  0  0  0  0  0  0  0  0
   -3.8231    0.6897   -0.8463 C   0  0  0  0  0  0  0  0  0  0  0  0
   -3.6114    1.9735   -0.3633 C   0  0  0  0  0  0  0  0  0  0  0  0
   -4.5470    2.9235   -0.6477 O   0  0  0  0  0  0  0  0  0  0  0  0
   -2.4773    2.2734    0.3814 C   0  0  0  0  0  0  0  0  0  0  0  0
   -1.5428    1.2690    0.6480 C   0  0  0  0  0  0  0  0  0  0  0  0
   -0.9391   -1.6375    3.8934 H   0  0  0  0  0  0  0  0  0  0  0  0
   -2.0940   -0.7294    2.9119 H   0  0  0  0  0  0  0  0  0  0  0  0
   -1.8596   -2.4662    2.6285 H   0  0  0  0  0  0  0  0  0  0  0  0
    0.5142   -2.0283    1.9915 H   0  0  0  0  0  0  0  0  0  0  0  0
    0.2637   -0.3023    2.2000 H   0  0  0  0  0  0  0  0  0  0  0  0
   -1.2761   -2.0963    0.2697 H   0  0  0  0  0  0  0  0  0  0  0  0
   -0.0856   -1.0745   -1.6267 H   0  0  0  0  0  0  0  0  0  0  0  0
    1.7606   -2.6758    0.2058 H   0  0  0  0  0  0  0  0  0  0  0  0
    0.4145   -3.3222   -0.7171 H   0  0  0  0  0  0  0  0  0  0  0  0
    2.4880   -3.6754   -1.9363 H   0  0  0  0  0  0  0  0  0  0  0  0
    1.4773   -2.5387   -2.8421 H   0  0  0  0  0  0  0  0  0  0  0  0
    2.8732   -1.9511   -1.9159 H   0  0  0  0  0  0  0  0  0  0  0  0
    0.3831    1.1294   -2.1505 H   0  0  0  0  0  0  0  0  0  0  0  0
    1.8894    3.0773   -2.0375 H   0  0  0  0  0  0  0  0  0  0  0  0
    4.5601    3.2322    0.2647 H   0  0  0  0  0  0  0  0  0  0  0  0
    4.0781    1.2114    1.1592 H   0  0  0  0  0  0  0  0  0  0  0  0
    2.5970   -0.7300    1.0619 H   0  0  0  0  0  0  0  0  0  0  0  0
   -3.0674   -1.3112   -0.9727 H   0  0  0  0  0  0  0  0  0  0  0  0
   -4.7121    0.4684   -1.4296 H   0  0  0  0  0  0  0  0  0  0  0  0
   -4.2598    3.7632   -0.2534 H   0  0  0  0  0  0  0  0  0  0  0  0
   -2.2969    3.2754    0.7569 H   0  0  0  0  0  0  0  0  0  0  0  0
   -0.6526    1.5277    1.2169 H   0  0  0  0  0  0  0  0  0  0  0  0
  1  2  1  0
  2  3  1  0
  3  4  1  0
  4  5  1  0
  5  6  1  0
  4  7  1  0
  7  8  2  0
  8  9  1  0
  9 10  2  0
 10 11  1  0
 10 12  1  0
 12 13  2  0
  3 14  1  0
 14 15  2  0
 15 16  1  0
 16 17  2  0
 17 18  1  0
 17 19  1  0
 19 20  2  0
 13  7  1  0
 20 14  1  0
  1 21  1  0
  1 22  1  0
  1 23  1  0
  2 24  1  0
  2 25  1  0
  3 26  1  0
  4 27  1  0
  5 28  1  0
  5 29  1  0
  6 30  1  0
  6 31  1  0
  6 32  1  0
  8 33  1  0
  9 34  1  0
 11 35  1  0
 12 36  1  0
 13 37  1  0
 15 38  1  0
 16 39  1  0
 18 40  1  0
 19 41  1  0
 20 42  1  0
M  END
>  <Energy>  (5) 
34.02463701795194

>  <Real charge>  (5) 
0

>  <Mult>  (5) 
1

$$$$
