mol_948 115
     RDKit          3D

 24 24  0  0  0  0  0  0  0  0999 V2000
   -2.9613    0.5189    0.1572 C   0  0  0  0  0  0  0  0  0  0  0  0
   -1.9175   -0.5871    0.2206 C   0  0  0  0  0  0  0  0  0  0  0  0
   -0.5252   -0.1518   -0.2728 C   0  0  0  0  0  0  0  0  0  0  0  0
    0.4109   -1.3720   -0.3232 C   0  0  0  0  0  0  0  0  0  0  0  0
    1.8196   -0.9947   -0.7736 C   0  0  0  0  0  0  0  0  0  0  0  0
    2.4114    0.1042    0.1013 C   0  0  0  0  0  0  0  0  0  0  0  0
    1.4988    1.3239    0.1547 C   0  0  0  0  0  0  0  0  0  0  0  0
    0.0848    0.9565    0.6013 C   0  0  0  0  0  0  0  0  0  0  0  0
   -2.7390    1.3231    0.8643 H   0  0  0  0  0  0  0  0  0  0  0  0
   -3.9473    0.1183    0.4142 H   0  0  0  0  0  0  0  0  0  0  0  0
   -3.0214    0.9459   -0.8488 H   0  0  0  0  0  0  0  0  0  0  0  0
   -1.8531   -0.9604    1.2500 H   0  0  0  0  0  0  0  0  0  0  0  0
   -2.2702   -1.4233   -0.3960 H   0  0  0  0  0  0  0  0  0  0  0  0
   -0.6295    0.2364   -1.2953 H   0  0  0  0  0  0  0  0  0  0  0  0
    0.0056   -2.1251   -1.0096 H   0  0  0  0  0  0  0  0  0  0  0  0
    0.4635   -1.8415    0.6676 H   0  0  0  0  0  0  0  0  0  0  0  0
    2.4657   -1.8792   -0.7416 H   0  0  0  0  0  0  0  0  0  0  0  0
    1.7913   -0.6571   -1.8170 H   0  0  0  0  0  0  0  0  0  0  0  0
    2.5677   -0.2805    1.1166 H   0  0  0  0  0  0  0  0  0  0  0  0
    3.3945    0.3950   -0.2854 H   0  0  0  0  0  0  0  0  0  0  0  0
    1.9190    2.0681    0.8407 H   0  0  0  0  0  0  0  0  0  0  0  0
    1.4567    1.7919   -0.8366 H   0  0  0  0  0  0  0  0  0  0  0  0
   -0.5348    1.8590    0.5621 H   0  0  0  0  0  0  0  0  0  0  0  0
    0.1098    0.6313    1.6492 H   0  0  0  0  0  0  0  0  0  0  0  0
  1  2  1  0
  2  3  1  0
  3  4  1  0
  4  5  1  0
  5  6  1  0
  6  7  1  0
  7  8  1  0
  8  3  1  0
  1  9  1  0
  1 10  1  0
  1 11  1  0
  2 12  1  0
  2 13  1  0
  3 14  1  0
  4 15  1  0
  4 16  1  0
  5 17  1  0
  5 18  1  0
  6 19  1  0
  6 20  1  0
  7 21  1  0
  7 22  1  0
  8 23  1  0
  8 24  1  0
M  END
>  <Energy>  (1) 
1.439207787421389

>  <Real charge>  (1) 
0

>  <Mult>  (1) 
1

$$$$
mol_948 134
     RDKit          3D

 24 24  0  0  0  0  0  0  0  0999 V2000
    2.5839    0.4048   -0.8409 C   0  0  0  0  0  0  0  0  0  0  0  0
    1.9174   -0.8348   -0.2606 C   0  0  0  0  0  0  0  0  0  0  0  0
    0.4281   -0.6873    0.1021 C   0  0  0  0  0  0  0  0  0  0  0  0
   -0.4515   -0.3888   -1.1218 C   0  0  0  0  0  0  0  0  0  0  0  0
   -1.9293   -0.3104   -0.7402 C   0  0  0  0  0  0  0  0  0  0  0  0
   -2.1702    0.7074    0.3710 C   0  0  0  0  0  0  0  0  0  0  0  0
   -1.2888    0.4343    1.5864 C   0  0  0  0  0  0  0  0  0  0  0  0
    0.1889    0.3560    1.2046 C   0  0  0  0  0  0  0  0  0  0  0  0
    2.5609    1.2425   -0.1385 H   0  0  0  0  0  0  0  0  0  0  0  0
    2.1103    0.7186   -1.7752 H   0  0  0  0  0  0  0  0  0  0  0  0
    3.6350    0.1905   -1.0616 H   0  0  0  0  0  0  0  0  0  0  0  0
    2.4713   -1.1381    0.6366 H   0  0  0  0  0  0  0  0  0  0  0  0
    2.0262   -1.6557   -0.9804 H   0  0  0  0  0  0  0  0  0  0  0  0
    0.1119   -1.6620    0.5012 H   0  0  0  0  0  0  0  0  0  0  0  0
   -0.3150   -1.1683   -1.8805 H   0  0  0  0  0  0  0  0  0  0  0  0
   -0.1581    0.5622   -1.5817 H   0  0  0  0  0  0  0  0  0  0  0  0
   -2.2744   -1.2985   -0.4118 H   0  0  0  0  0  0  0  0  0  0  0  0
   -2.5232   -0.0415   -1.6210 H   0  0  0  0  0  0  0  0  0  0  0  0
   -1.9647    1.7160   -0.0084 H   0  0  0  0  0  0  0  0  0  0  0  0
   -3.2248    0.6868    0.6679 H   0  0  0  0  0  0  0  0  0  0  0  0
   -1.4350    1.2239    2.3321 H   0  0  0  0  0  0  0  0  0  0  0  0
   -1.5952   -0.5087    2.0555 H   0  0  0  0  0  0  0  0  0  0  0  0
    0.5172    1.3475    0.8715 H   0  0  0  0  0  0  0  0  0  0  0  0
    0.7790    0.1038    2.0935 H   0  0  0  0  0  0  0  0  0  0  0  0
  1  2  1  0
  2  3  1  0
  3  4  1  0
  4  5  1  0
  5  6  1  0
  6  7  1  0
  7  8  1  0
  8  3  1  0
  1  9  1  0
  1 10  1  0
  1 11  1  0
  2 12  1  0
  2 13  1  0
  3 14  1  0
  4 15  1  0
  4 16  1  0
  5 17  1  0
  5 18  1  0
  6 19  1  0
  6 20  1  0
  7 21  1  0
  7 22  1  0
  8 23  1  0
  8 24  1  0
M  END
>  <Energy>  (2) 
2.2248915663051316

>  <Real charge>  (2) 
0

>  <Mult>  (2) 
1

$$$$
