mol_484 4
     RDKit          3D

 10 10  0  0  0  0  0  0  0  0999 V2000
    1.9153   -0.0399    0.3087 N   0  0  0  0  0  0  0  0  0  0  0  0
    0.6010    0.0548    0.1333 C   0  0  0  0  0  0  0  0  0  0  0  0
   -0.1656   -1.0521    0.3235 N   0  0  0  0  0  0  0  0  0  0  0  0
   -1.3778   -0.6184    0.0690 C   0  0  0  0  0  0  0  0  0  0  0  0
   -1.3213    0.6944   -0.2732 N   0  0  0  0  0  0  0  0  0  0  0  0
   -0.0571    1.1415   -0.2577 N   0  0  0  0  0  0  0  0  0  0  0  0
    2.4762    0.6553   -0.1644 H   0  0  0  0  0  0  0  0  0  0  0  0
    2.2960   -0.9759    0.2712 H   0  0  0  0  0  0  0  0  0  0  0  0
   -2.2951   -1.1869    0.1148 H   0  0  0  0  0  0  0  0  0  0  0  0
   -2.0716    1.3272   -0.5253 H   0  0  0  0  0  0  0  0  0  0  0  0
  1  2  1  0
  2  3  1  0
  3  4  2  0
  4  5  1  0
  5  6  1  0
  6  2  2  0
  1  7  1  0
  1  8  1  0
  4  9  1  0
  5 10  1  0
M  END
>  <Energy>  (1) 
-85.44671536161624

>  <Real charge>  (1) 
0

>  <Mult>  (1) 
1

$$$$
