mol_985 67
     RDKit          3D

 23 24  0  0  0  0  0  0  0  0999 V2000
    4.0354    0.3596   -0.5940 O   0  0  0  0  0  0  0  0  0  0  0  0
    2.8203    0.2760   -0.4488 C   0  0  0  0  0  0  0  0  0  0  0  0
    2.0949    1.3082    0.0608 N   0  0  0  0  0  0  0  0  0  0  0  0
    0.9139    1.1304    0.7312 C   0  0  0  0  0  0  0  0  0  0  0  0
    0.5847    1.9062    1.6229 O   0  0  0  0  0  0  0  0  0  0  0  0
    0.0723   -0.0382    0.2468 C   0  0  0  0  0  0  0  0  0  0  0  0
   -1.0356   -0.4278    1.2477 C   0  0  0  0  0  0  0  0  0  0  0  0
   -2.2762   -0.6603    0.3960 C   0  0  0  0  0  0  0  0  0  0  0  0
   -2.1568    0.4031   -0.6774 C   0  0  0  0  0  0  0  0  0  0  0  0
   -0.6773    0.3818   -1.0458 C   0  0  0  0  0  0  0  0  0  0  0  0
    0.9763   -1.2148   -0.0828 C   0  0  0  0  0  0  0  0  0  0  0  0
    0.6903   -2.3900    0.1257 O   0  0  0  0  0  0  0  0  0  0  0  0
    2.1553   -0.8849   -0.6958 N   0  0  0  0  0  0  0  0  0  0  0  0
    2.6564    2.0833    0.3890 H   0  0  0  0  0  0  0  0  0  0  0  0
   -0.7961   -1.3158    1.8419 H   0  0  0  0  0  0  0  0  0  0  0  0
   -1.2459    0.3781    1.9605 H   0  0  0  0  0  0  0  0  0  0  0  0
   -2.2507   -1.6609   -0.0512 H   0  0  0  0  0  0  0  0  0  0  0  0
   -3.1995   -0.5663    0.9746 H   0  0  0  0  0  0  0  0  0  0  0  0
   -2.4281    1.3845   -0.2703 H   0  0  0  0  0  0  0  0  0  0  0  0
   -2.8007    0.2020   -1.5383 H   0  0  0  0  0  0  0  0  0  0  0  0
   -0.3699    1.3603   -1.4316 H   0  0  0  0  0  0  0  0  0  0  0  0
   -0.5209   -0.3456   -1.8526 H   0  0  0  0  0  0  0  0  0  0  0  0
    2.7581   -1.6691   -0.9086 H   0  0  0  0  0  0  0  0  0  0  0  0
  1  2  2  0
  2  3  1  0
  3  4  1  0
  4  5  2  0
  4  6  1  0
  6  7  1  0
  7  8  1  0
  8  9  1  0
  9 10  1  0
  6 11  1  0
 11 12  2  0
 11 13  1  0
 10  6  1  0
 13  2  1  0
  3 14  1  0
  7 15  1  0
  7 16  1  0
  8 17  1  0
  8 18  1  0
  9 19  1  0
  9 20  1  0
 10 21  1  0
 10 22  1  0
 13 23  1  0
M  END
>  <Energy>  (1) 
-127.14062625091483

>  <Real charge>  (1) 
0

>  <Mult>  (1) 
1

$$$$
