mol_529 50
     RDKit          3D

 16 15  0  0  0  0  0  0  0  0999 V2000
   -1.5100    0.7273    0.5623 C   0  0  0  0  0  0  0  0  0  0  0  0
   -0.7002   -0.3034   -0.1759 C   0  0  0  0  0  0  0  0  0  0  0  0
   -1.2341   -1.4792   -0.5466 C   0  0  0  0  0  0  0  0  0  0  0  0
    0.6901    0.0317   -0.4714 C   0  0  0  0  0  0  0  0  0  0  0  0
    1.1777   -0.0299   -1.7218 C   0  0  0  0  0  0  0  0  0  0  0  0
    1.5540    0.4491    0.6872 C   0  0  0  0  0  0  0  0  0  0  0  0
   -1.4610    1.6949    0.0510 H   0  0  0  0  0  0  0  0  0  0  0  0
   -1.1427    0.8534    1.5861 H   0  0  0  0  0  0  0  0  0  0  0  0
   -2.5669    0.4456    0.6256 H   0  0  0  0  0  0  0  0  0  0  0  0
   -2.2676   -1.7267   -0.3266 H   0  0  0  0  0  0  0  0  0  0  0  0
   -0.6519   -2.2307   -1.0714 H   0  0  0  0  0  0  0  0  0  0  0  0
    2.2112    0.2191   -1.9398 H   0  0  0  0  0  0  0  0  0  0  0  0
    0.5565   -0.3214   -2.5634 H   0  0  0  0  0  0  0  0  0  0  0  0
    1.2275    1.4129    1.0913 H   0  0  0  0  0  0  0  0  0  0  0  0
    1.5132   -0.2980    1.4874 H   0  0  0  0  0  0  0  0  0  0  0  0
    2.6044    0.5554    0.3942 H   0  0  0  0  0  0  0  0  0  0  0  0
  1  2  1  0
  2  3  2  3
  2  4  1  0
  4  5  2  3
  4  6  1  0
  1  7  1  0
  1  8  1  0
  1  9  1  0
  3 10  1  0
  3 11  1  0
  5 12  1  0
  5 13  1  0
  6 14  1  0
  6 15  1  0
  6 16  1  0
M  END
>  <Energy>  (1) 
11.834285748415585

>  <Real charge>  (1) 
0

>  <Mult>  (1) 
1

$$$$
mol_529 139
     RDKit          3D

 16 15  0  0  0  0  0  0  0  0999 V2000
   -1.8437   -0.6790    0.1907 C   0  0  0  0  0  0  0  0  0  0  0  0
   -0.6785    0.2769    0.0750 C   0  0  0  0  0  0  0  0  0  0  0  0
   -0.9287    1.5986    0.1138 C   0  0  0  0  0  0  0  0  0  0  0  0
    0.6785   -0.2769   -0.0750 C   0  0  0  0  0  0  0  0  0  0  0  0
    0.9287   -1.5986   -0.1138 C   0  0  0  0  0  0  0  0  0  0  0  0
    1.8437    0.6790   -0.1907 C   0  0  0  0  0  0  0  0  0  0  0  0
   -2.7998   -0.1539    0.2976 H   0  0  0  0  0  0  0  0  0  0  0  0
   -1.7330   -1.3221    1.0705 H   0  0  0  0  0  0  0  0  0  0  0  0
   -1.9225   -1.3059   -0.7042 H   0  0  0  0  0  0  0  0  0  0  0  0
   -0.1544    2.3534    0.0380 H   0  0  0  0  0  0  0  0  0  0  0  0
   -1.9409    1.9770    0.2253 H   0  0  0  0  0  0  0  0  0  0  0  0
    1.9409   -1.9770   -0.2253 H   0  0  0  0  0  0  0  0  0  0  0  0
    0.1544   -2.3534   -0.0380 H   0  0  0  0  0  0  0  0  0  0  0  0
    1.9225    1.3059    0.7042 H   0  0  0  0  0  0  0  0  0  0  0  0
    1.7330    1.3221   -1.0705 H   0  0  0  0  0  0  0  0  0  0  0  0
    2.7998    0.1539   -0.2976 H   0  0  0  0  0  0  0  0  0  0  0  0
  1  2  1  0
  2  3  2  3
  2  4  1  0
  4  5  2  3
  4  6  1  0
  1  7  1  0
  1  8  1  0
  1  9  1  0
  3 10  1  0
  3 11  1  0
  5 12  1  0
  5 13  1  0
  6 14  1  0
  6 15  1  0
  6 16  1  0
M  END
>  <Energy>  (2) 
11.940639878613144

>  <Real charge>  (2) 
0

>  <Mult>  (2) 
1

$$$$
