mol_44 320
     RDKit          3D

 31 31  0  0  0  0  0  0  0  0999 V2000
   -2.7147    0.5040    0.9740 C   0  0  0  0  0  0  0  0  0  0  0  0
   -2.2026   -0.0566   -0.3556 C   0  0  0  0  0  0  0  0  0  0  0  0
   -2.8696   -1.4098   -0.6298 C   0  0  0  0  0  0  0  0  0  0  0  0
   -0.6495   -0.1480   -0.4543 C   0  0  0  0  0  0  0  0  0  0  0  0
   -0.0170   -1.0811    0.5945 C   0  0  0  0  0  0  0  0  0  0  0  0
    1.4990   -1.1853    0.4243 C   0  0  0  0  0  0  0  0  0  0  0  0
    2.1719    0.1905    0.4664 C   0  0  0  0  0  0  0  0  0  0  0  0
    3.6781    0.0621    0.2471 C   0  0  0  0  0  0  0  0  0  0  0  0
    1.5506    1.1248   -0.5749 C   0  0  0  0  0  0  0  0  0  0  0  0
    0.0330    1.2370   -0.4059 C   0  0  0  0  0  0  0  0  0  0  0  0
   -0.4814    2.0586   -1.4509 O   0  0  0  0  0  0  0  0  0  0  0  0
   -2.3218    1.5060    1.1670 H   0  0  0  0  0  0  0  0  0  0  0  0
   -3.8074    0.5851    0.9576 H   0  0  0  0  0  0  0  0  0  0  0  0
   -2.4475   -0.1398    1.8176 H   0  0  0  0  0  0  0  0  0  0  0  0
   -2.5474    0.6218   -1.1470 H   0  0  0  0  0  0  0  0  0  0  0  0
   -2.6843   -2.1278    0.1751 H   0  0  0  0  0  0  0  0  0  0  0  0
   -2.5071   -1.8422   -1.5682 H   0  0  0  0  0  0  0  0  0  0  0  0
   -3.9550   -1.2898   -0.7187 H   0  0  0  0  0  0  0  0  0  0  0  0
   -0.4376   -0.5726   -1.4473 H   0  0  0  0  0  0  0  0  0  0  0  0
   -0.4403   -2.0882    0.5186 H   0  0  0  0  0  0  0  0  0  0  0  0
   -0.2324   -0.7174    1.6060 H   0  0  0  0  0  0  0  0  0  0  0  0
    1.7212   -1.6826   -0.5287 H   0  0  0  0  0  0  0  0  0  0  0  0
    1.9067   -1.8240    1.2170 H   0  0  0  0  0  0  0  0  0  0  0  0
    2.0119    0.6251    1.4621 H   0  0  0  0  0  0  0  0  0  0  0  0
    4.1277   -0.5823    1.0099 H   0  0  0  0  0  0  0  0  0  0  0  0
    3.9031   -0.3677   -0.7349 H   0  0  0  0  0  0  0  0  0  0  0  0
    4.1639    1.0416    0.3073 H   0  0  0  0  0  0  0  0  0  0  0  0
    1.9994    2.1238   -0.5021 H   0  0  0  0  0  0  0  0  0  0  0  0
    1.7801    0.7740   -1.5903 H   0  0  0  0  0  0  0  0  0  0  0  0
   -0.1831    1.7343    0.5463 H   0  0  0  0  0  0  0  0  0  0  0  0
   -0.0481    2.9265   -1.3823 H   0  0  0  0  0  0  0  0  0  0  0  0
  1  2  1  0
  2  3  1  0
  2  4  1  0
  4  5  1  0
  5  6  1  0
  6  7  1  0
  7  8  1  0
  7  9  1  0
  9 10  1  0
 10 11  1  0
 10  4  1  0
  1 12  1  0
  1 13  1  0
  1 14  1  0
  2 15  1  0
  3 16  1  0
  3 17  1  0
  3 18  1  0
  4 19  1  0
  5 20  1  0
  5 21  1  0
  6 22  1  0
  6 23  1  0
  7 24  1  0
  8 25  1  0
  8 26  1  0
  8 27  1  0
  9 28  1  0
  9 29  1  0
 10 30  1  0
 11 31  1  0
M  END
>  <Energy>  (1) 
17.774243437693652

>  <Real charge>  (1) 
0

>  <Mult>  (1) 
1

$$$$
mol_44 371
     RDKit          3D

 31 31  0  0  0  0  0  0  0  0999 V2000
   -3.0404    0.9878    0.3723 C   0  0  0  0  0  0  0  0  0  0  0  0
   -2.1497    0.0474   -0.4488 C   0  0  0  0  0  0  0  0  0  0  0  0
   -2.5161   -1.4056   -0.1353 C   0  0  0  0  0  0  0  0  0  0  0  0
   -0.6362    0.3753   -0.2692 C   0  0  0  0  0  0  0  0  0  0  0  0
   -0.1463    0.2343    1.1848 C   0  0  0  0  0  0  0  0  0  0  0  0
    1.3239    0.6268    1.3347 C   0  0  0  0  0  0  0  0  0  0  0  0
    2.2263   -0.1762    0.3928 C   0  0  0  0  0  0  0  0  0  0  0  0
    3.6808    0.2701    0.5272 C   0  0  0  0  0  0  0  0  0  0  0  0
    1.7481   -0.0371   -1.0543 C   0  0  0  0  0  0  0  0  0  0  0  0
    0.2798   -0.4408   -1.2106 C   0  0  0  0  0  0  0  0  0  0  0  0
   -0.0765   -0.2260   -2.5735 O   0  0  0  0  0  0  0  0  0  0  0  0
   -2.9596    0.7941    1.4464 H   0  0  0  0  0  0  0  0  0  0  0  0
   -2.7786    2.0350    0.1888 H   0  0  0  0  0  0  0  0  0  0  0  0
   -4.0921    0.8563    0.0948 H   0  0  0  0  0  0  0  0  0  0  0  0
   -2.4076    0.2284   -1.5002 H   0  0  0  0  0  0  0  0  0  0  0  0
   -2.3166   -1.6594    0.9102 H   0  0  0  0  0  0  0  0  0  0  0  0
   -1.9663   -2.1055   -0.7707 H   0  0  0  0  0  0  0  0  0  0  0  0
   -3.5830   -1.5777   -0.3167 H   0  0  0  0  0  0  0  0  0  0  0  0
   -0.5256    1.4323   -0.5551 H   0  0  0  0  0  0  0  0  0  0  0  0
   -0.2716   -0.7991    1.5287 H   0  0  0  0  0  0  0  0  0  0  0  0
   -0.7371    0.8689    1.8536 H   0  0  0  0  0  0  0  0  0  0  0  0
    1.6344    0.4673    2.3743 H   0  0  0  0  0  0  0  0  0  0  0  0
    1.4322    1.7003    1.1332 H   0  0  0  0  0  0  0  0  0  0  0  0
    2.1708   -1.2354    0.6771 H   0  0  0  0  0  0  0  0  0  0  0  0
    4.0322    0.1434    1.5566 H   0  0  0  0  0  0  0  0  0  0  0  0
    4.3307   -0.3239   -0.1241 H   0  0  0  0  0  0  0  0  0  0  0  0
    3.8016    1.3243    0.2555 H   0  0  0  0  0  0  0  0  0  0  0  0
    1.8836    0.9952   -1.4049 H   0  0  0  0  0  0  0  0  0  0  0  0
    2.3660   -0.6547   -1.7188 H   0  0  0  0  0  0  0  0  0  0  0  0
    0.1936   -1.5140   -1.0050 H   0  0  0  0  0  0  0  0  0  0  0  0
   -0.9007   -0.7120   -2.7438 H   0  0  0  0  0  0  0  0  0  0  0  0
  1  2  1  0
  2  3  1  0
  2  4  1  0
  4  5  1  0
  5  6  1  0
  6  7  1  0
  7  8  1  0
  7  9  1  0
  9 10  1  0
 10 11  1  0
 10  4  1  0
  1 12  1  0
  1 13  1  0
  1 14  1  0
  2 15  1  0
  3 16  1  0
  3 17  1  0
  3 18  1  0
  4 19  1  0
  5 20  1  0
  5 21  1  0
  6 22  1  0
  6 23  1  0
  7 24  1  0
  8 25  1  0
  8 26  1  0
  8 27  1  0
  9 28  1  0
  9 29  1  0
 10 30  1  0
 11 31  1  0
M  END
>  <Energy>  (2) 
18.20940044808335

>  <Real charge>  (2) 
0

>  <Mult>  (2) 
1

$$$$
mol_44 80
     RDKit          3D

 31 31  0  0  0  0  0  0  0  0999 V2000
   -3.0548   -0.9858   -0.3193 C   0  0  0  0  0  0  0  0  0  0  0  0
   -2.1731    0.2533   -0.1117 C   0  0  0  0  0  0  0  0  0  0  0  0
   -2.8345    1.1445    0.9478 C   0  0  0  0  0  0  0  0  0  0  0  0
   -0.7056   -0.1246    0.2676 C   0  0  0  0  0  0  0  0  0  0  0  0
   -0.0509   -0.9940   -0.8289 C   0  0  0  0  0  0  0  0  0  0  0  0
    1.3974   -1.3570   -0.5036 C   0  0  0  0  0  0  0  0  0  0  0  0
    2.2538   -0.1172   -0.2385 C   0  0  0  0  0  0  0  0  0  0  0  0
    3.6819   -0.5163    0.1299 C   0  0  0  0  0  0  0  0  0  0  0  0
    1.6257    0.7332    0.8718 C   0  0  0  0  0  0  0  0  0  0  0  0
    0.1753    1.1134    0.5591 C   0  0  0  0  0  0  0  0  0  0  0  0
    0.1484    1.9945   -0.5627 O   0  0  0  0  0  0  0  0  0  0  0  0
   -4.0985   -0.6991   -0.4897 H   0  0  0  0  0  0  0  0  0  0  0  0
   -3.0247   -1.6444    0.5552 H   0  0  0  0  0  0  0  0  0  0  0  0
   -2.7415   -1.5602   -1.1958 H   0  0  0  0  0  0  0  0  0  0  0  0
   -2.1655    0.8113   -1.0570 H   0  0  0  0  0  0  0  0  0  0  0  0
   -3.8887    1.3216    0.7075 H   0  0  0  0  0  0  0  0  0  0  0  0
   -2.3561    2.1268    1.0015 H   0  0  0  0  0  0  0  0  0  0  0  0
   -2.7875    0.6818    1.9393 H   0  0  0  0  0  0  0  0  0  0  0  0
   -0.7389   -0.7259    1.1876 H   0  0  0  0  0  0  0  0  0  0  0  0
   -0.0867   -0.4703   -1.7924 H   0  0  0  0  0  0  0  0  0  0  0  0
   -0.6035   -1.9308   -0.9555 H   0  0  0  0  0  0  0  0  0  0  0  0
    1.4131   -2.0174    0.3732 H   0  0  0  0  0  0  0  0  0  0  0  0
    1.8197   -1.9305   -1.3376 H   0  0  0  0  0  0  0  0  0  0  0  0
    2.2998    0.4792   -1.1591 H   0  0  0  0  0  0  0  0  0  0  0  0
    3.7049   -1.1184    1.0446 H   0  0  0  0  0  0  0  0  0  0  0  0
    4.1401   -1.1030   -0.6732 H   0  0  0  0  0  0  0  0  0  0  0  0
    4.3028    0.3709    0.2929 H   0  0  0  0  0  0  0  0  0  0  0  0
    1.6567    0.1859    1.8226 H   0  0  0  0  0  0  0  0  0  0  0  0
    2.2229    1.6444    1.0021 H   0  0  0  0  0  0  0  0  0  0  0  0
   -0.2217    1.6637    1.4186 H   0  0  0  0  0  0  0  0  0  0  0  0
    0.6897    2.7707   -0.3396 H   0  0  0  0  0  0  0  0  0  0  0  0
  1  2  1  0
  2  3  1  0
  2  4  1  0
  4  5  1  0
  5  6  1  0
  6  7  1  0
  7  8  1  0
  7  9  1  0
  9 10  1  0
 10 11  1  0
 10  4  1  0
  1 12  1  0
  1 13  1  0
  1 14  1  0
  2 15  1  0
  3 16  1  0
  3 17  1  0
  3 18  1  0
  4 19  1  0
  5 20  1  0
  5 21  1  0
  6 22  1  0
  6 23  1  0
  7 24  1  0
  8 25  1  0
  8 26  1  0
  8 27  1  0
  9 28  1  0
  9 29  1  0
 10 30  1  0
 11 31  1  0
M  END
>  <Energy>  (3) 
18.276289788855387

>  <Real charge>  (3) 
0

>  <Mult>  (3) 
1

$$$$
mol_44 136
     RDKit          3D

 31 31  0  0  0  0  0  0  0  0999 V2000
   -2.8418   -1.0789    0.9569 C   0  0  0  0  0  0  0  0  0  0  0  0
   -2.1308   -0.2398   -0.1131 C   0  0  0  0  0  0  0  0  0  0  0  0
   -2.9767    1.0128   -0.3826 C   0  0  0  0  0  0  0  0  0  0  0  0
   -0.6660    0.1153    0.2952 C   0  0  0  0  0  0  0  0  0  0  0  0
    0.0420    0.9342   -0.8068 C   0  0  0  0  0  0  0  0  0  0  0  0
    1.4783    1.2985   -0.4320 C   0  0  0  0  0  0  0  0  0  0  0  0
    2.3115    0.0646   -0.0795 C   0  0  0  0  0  0  0  0  0  0  0  0
    3.7222    0.4692    0.3457 C   0  0  0  0  0  0  0  0  0  0  0  0
    1.6235   -0.7445    1.0271 C   0  0  0  0  0  0  0  0  0  0  0  0
    0.1863   -1.1252    0.6592 C   0  0  0  0  0  0  0  0  0  0  0  0
    0.2392   -2.0450   -0.4298 O   0  0  0  0  0  0  0  0  0  0  0  0
   -2.8158   -0.5805    1.9318 H   0  0  0  0  0  0  0  0  0  0  0  0
   -2.3861   -2.0675    1.0630 H   0  0  0  0  0  0  0  0  0  0  0  0
   -3.8916   -1.2441    0.6905 H   0  0  0  0  0  0  0  0  0  0  0  0
   -2.1135   -0.8252   -1.0412 H   0  0  0  0  0  0  0  0  0  0  0  0
   -4.0228    0.7454   -0.5695 H   0  0  0  0  0  0  0  0  0  0  0  0
   -2.6286    1.5501   -1.2693 H   0  0  0  0  0  0  0  0  0  0  0  0
   -2.9515    1.6991    0.4704 H   0  0  0  0  0  0  0  0  0  0  0  0
   -0.7157    0.7485    1.1929 H   0  0  0  0  0  0  0  0  0  0  0  0
    0.0420    0.3720   -1.7490 H   0  0  0  0  0  0  0  0  0  0  0  0
   -0.4942    1.8700   -0.9948 H   0  0  0  0  0  0  0  0  0  0  0  0
    1.4611    1.9932    0.4178 H   0  0  0  0  0  0  0  0  0  0  0  0
    1.9425    1.8352   -1.2682 H   0  0  0  0  0  0  0  0  0  0  0  0
    2.3999   -0.5638   -0.9754 H   0  0  0  0  0  0  0  0  0  0  0  0
    3.7038    1.1029    1.2388 H   0  0  0  0  0  0  0  0  0  0  0  0
    4.3282   -0.4149    0.5703 H   0  0  0  0  0  0  0  0  0  0  0  0
    4.2238    1.0250   -0.4535 H   0  0  0  0  0  0  0  0  0  0  0  0
    2.2047   -1.6567    1.2122 H   0  0  0  0  0  0  0  0  0  0  0  0
    1.6160   -0.1677    1.9607 H   0  0  0  0  0  0  0  0  0  0  0  0
   -0.2439   -1.6523    1.5174 H   0  0  0  0  0  0  0  0  0  0  0  0
   -0.6462   -2.4297   -0.5388 H   0  0  0  0  0  0  0  0  0  0  0  0
  1  2  1  0
  2  3  1  0
  2  4  1  0
  4  5  1  0
  5  6  1  0
  6  7  1  0
  7  8  1  0
  7  9  1  0
  9 10  1  0
 10 11  1  0
 10  4  1  0
  1 12  1  0
  1 13  1  0
  1 14  1  0
  2 15  1  0
  3 16  1  0
  3 17  1  0
  3 18  1  0
  4 19  1  0
  5 20  1  0
  5 21  1  0
  6 22  1  0
  6 23  1  0
  7 24  1  0
  8 25  1  0
  8 26  1  0
  8 27  1  0
  9 28  1  0
  9 29  1  0
 10 30  1  0
 11 31  1  0
M  END
>  <Energy>  (4) 
18.6305780603292

>  <Real charge>  (4) 
0

>  <Mult>  (4) 
1

$$$$
