mol_435 224
     RDKit          3D

 38 41  0  0  0  0  0  0  0  0999 V2000
   -3.7811   -0.7035   -1.1150 C   0  0  0  0  0  0  0  0  0  0  0  0
   -2.4590   -0.5696   -0.3473 C   0  0  0  0  0  0  0  0  0  0  0  0
   -1.5672   -1.7752   -0.6231 C   0  0  0  0  0  0  0  0  0  0  0  0
   -0.2297   -1.6847    0.1044 C   0  0  0  0  0  0  0  0  0  0  0  0
    0.4981   -0.3824   -0.1492 C   0  0  0  0  0  0  0  0  0  0  0  0
   -0.2355    0.7619   -0.5314 C   0  0  0  0  0  0  0  0  0  0  0  0
    0.4568    1.9439   -0.8323 C   0  0  0  0  0  0  0  0  0  0  0  0
    1.8406    2.0183   -0.7056 C   0  0  0  0  0  0  0  0  0  0  0  0
    2.5775    0.9164   -0.2653 C   0  0  0  0  0  0  0  0  0  0  0  0
    3.9697    1.0251   -0.1163 C   0  0  0  0  0  0  0  0  0  0  0  0
    4.7183   -0.0539    0.3321 C   0  0  0  0  0  0  0  0  0  0  0  0
    6.0651    0.1126    0.4593 O   0  0  0  0  0  0  0  0  0  0  0  0
    4.1044   -1.2552    0.6422 C   0  0  0  0  0  0  0  0  0  0  0  0
    2.7189   -1.3739    0.4927 C   0  0  0  0  0  0  0  0  0  0  0  0
    1.9161   -0.3020    0.0292 C   0  0  0  0  0  0  0  0  0  0  0  0
   -1.7532    0.7722   -0.6535 C   0  0  0  0  0  0  0  0  0  0  0  0
   -2.3998    1.7549    0.3434 C   0  0  0  0  0  0  0  0  0  0  0  0
   -2.5484    0.9714    1.6408 C   0  0  0  0  0  0  0  0  0  0  0  0
   -2.7844   -0.4253    1.1341 C   0  0  0  0  0  0  0  0  0  0  0  0
   -3.1858   -1.3410    1.8429 O   0  0  0  0  0  0  0  0  0  0  0  0
   -4.2942   -1.6360   -0.8526 H   0  0  0  0  0  0  0  0  0  0  0  0
   -4.4731    0.1144   -0.8869 H   0  0  0  0  0  0  0  0  0  0  0  0
   -3.6093   -0.7075   -2.1969 H   0  0  0  0  0  0  0  0  0  0  0  0
   -1.3837   -1.8523   -1.7035 H   0  0  0  0  0  0  0  0  0  0  0  0
   -2.0675   -2.7045   -0.3223 H   0  0  0  0  0  0  0  0  0  0  0  0
    0.3704   -2.5298   -0.2508 H   0  0  0  0  0  0  0  0  0  0  0  0
   -0.3685   -1.8054    1.1851 H   0  0  0  0  0  0  0  0  0  0  0  0
   -0.0818    2.8282   -1.1680 H   0  0  0  0  0  0  0  0  0  0  0  0
    2.3387    2.9561   -0.9432 H   0  0  0  0  0  0  0  0  0  0  0  0
    4.4814    1.9566   -0.3458 H   0  0  0  0  0  0  0  0  0  0  0  0
    6.4513   -0.7184    0.7813 H   0  0  0  0  0  0  0  0  0  0  0  0
    4.6742   -2.1061    1.0011 H   0  0  0  0  0  0  0  0  0  0  0  0
    2.2712   -2.3281    0.7588 H   0  0  0  0  0  0  0  0  0  0  0  0
   -1.9784    1.0848   -1.6822 H   0  0  0  0  0  0  0  0  0  0  0  0
   -1.8365    2.6795    0.5012 H   0  0  0  0  0  0  0  0  0  0  0  0
   -3.3934    2.0454   -0.0210 H   0  0  0  0  0  0  0  0  0  0  0  0
   -1.6277    0.9876    2.2306 H   0  0  0  0  0  0  0  0  0  0  0  0
   -3.3947    1.3256    2.2331 H   0  0  0  0  0  0  0  0  0  0  0  0
  1  2  1  0
  2  3  1  0
  3  4  1  0
  4  5  1  0
  5  6  2  0
  6  7  1  0
  7  8  2  0
  8  9  1  0
  9 10  2  0
 10 11  1  0
 11 12  1  0
 11 13  2  0
 13 14  1  0
 14 15  2  0
  6 16  1  0
 16 17  1  0
 17 18  1  0
 18 19  1  0
 19 20  2  0
 15  5  1  0
 15  9  1  0
 16  2  1  0
 19  2  1  0
  1 21  1  0
  1 22  1  0
  1 23  1  0
  3 24  1  0
  3 25  1  0
  4 26  1  0
  4 27  1  0
  7 28  1  0
  8 29  1  0
 10 30  1  0
 12 31  1  0
 13 32  1  0
 14 33  1  0
 16 34  1  0
 17 35  1  0
 17 36  1  0
 18 37  1  0
 18 38  1  0
M  END
>  <Energy>  (1) 
39.5204559917584

>  <Real charge>  (1) 
0

>  <Mult>  (1) 
1

$$$$
mol_435 104
     RDKit          3D

 38 41  0  0  0  0  0  0  0  0999 V2000
   -2.3279    1.5465    1.5761 C   0  0  0  0  0  0  0  0  0  0  0  0
   -2.2675    0.1501    0.9539 C   0  0  0  0  0  0  0  0  0  0  0  0
   -1.3819   -0.8097    1.7483 C   0  0  0  0  0  0  0  0  0  0  0  0
    0.0934   -0.4366    1.6525 C   0  0  0  0  0  0  0  0  0  0  0  0
    0.5769   -0.1630    0.2411 C   0  0  0  0  0  0  0  0  0  0  0  0
   -0.3554    0.1359   -0.7780 C   0  0  0  0  0  0  0  0  0  0  0  0
    0.1045    0.3932   -2.0763 C   0  0  0  0  0  0  0  0  0  0  0  0
    1.4643    0.3704   -2.3702 C   0  0  0  0  0  0  0  0  0  0  0  0
    2.4071    0.1062   -1.3732 C   0  0  0  0  0  0  0  0  0  0  0  0
    3.7748    0.1091   -1.6913 C   0  0  0  0  0  0  0  0  0  0  0  0
    4.7284   -0.1338   -0.7128 C   0  0  0  0  0  0  0  0  0  0  0  0
    6.0404   -0.1162   -1.0819 O   0  0  0  0  0  0  0  0  0  0  0  0
    4.3471   -0.3800    0.5950 C   0  0  0  0  0  0  0  0  0  0  0  0
    2.9871   -0.3879    0.9211 C   0  0  0  0  0  0  0  0  0  0  0  0
    1.9788   -0.1550   -0.0469 C   0  0  0  0  0  0  0  0  0  0  0  0
   -1.8469    0.1986   -0.5297 C   0  0  0  0  0  0  0  0  0  0  0  0
   -2.5895   -0.9792   -1.1786 C   0  0  0  0  0  0  0  0  0  0  0  0
   -3.9666   -0.9639   -0.5340 C   0  0  0  0  0  0  0  0  0  0  0  0
   -3.6654   -0.4402    0.8452 C   0  0  0  0  0  0  0  0  0  0  0  0
   -4.4691   -0.4822    1.7694 O   0  0  0  0  0  0  0  0  0  0  0  0
   -2.6129    1.4940    2.6330 H   0  0  0  0  0  0  0  0  0  0  0  0
   -1.3657    2.0642    1.5107 H   0  0  0  0  0  0  0  0  0  0  0  0
   -3.0762    2.1712    1.0745 H   0  0  0  0  0  0  0  0  0  0  0  0
   -1.5136   -1.8375    1.3829 H   0  0  0  0  0  0  0  0  0  0  0  0
   -1.6859   -0.8335    2.8027 H   0  0  0  0  0  0  0  0  0  0  0  0
    0.6558   -1.2721    2.0849 H   0  0  0  0  0  0  0  0  0  0  0  0
    0.2928    0.4515    2.2643 H   0  0  0  0  0  0  0  0  0  0  0  0
   -0.5986    0.6214   -2.8750 H   0  0  0  0  0  0  0  0  0  0  0  0
    1.7829    0.5750   -3.3903 H   0  0  0  0  0  0  0  0  0  0  0  0
    4.1077    0.3056   -2.7077 H   0  0  0  0  0  0  0  0  0  0  0  0
    6.5856   -0.3005   -0.2997 H   0  0  0  0  0  0  0  0  0  0  0  0
    5.0806   -0.5654    1.3730 H   0  0  0  0  0  0  0  0  0  0  0  0
    2.7266   -0.5755    1.9596 H   0  0  0  0  0  0  0  0  0  0  0  0
   -2.2259    1.1314   -0.9739 H   0  0  0  0  0  0  0  0  0  0  0  0
   -2.6571   -0.8824   -2.2675 H   0  0  0  0  0  0  0  0  0  0  0  0
   -2.0844   -1.9309   -0.9686 H   0  0  0  0  0  0  0  0  0  0  0  0
   -4.4070   -1.9623   -0.4921 H   0  0  0  0  0  0  0  0  0  0  0  0
   -4.6372   -0.2638   -1.0404 H   0  0  0  0  0  0  0  0  0  0  0  0
  1  2  1  0
  2  3  1  0
  3  4  1  0
  4  5  1  0
  5  6  2  0
  6  7  1  0
  7  8  2  0
  8  9  1  0
  9 10  2  0
 10 11  1  0
 11 12  1  0
 11 13  2  0
 13 14  1  0
 14 15  2  0
  6 16  1  0
 16 17  1  0
 17 18  1  0
 18 19  1  0
 19 20  2  0
 15  5  1  0
 15  9  1  0
 16  2  1  0
 19  2  1  0
  1 21  1  0
  1 22  1  0
  1 23  1  0
  3 24  1  0
  3 25  1  0
  4 26  1  0
  4 27  1  0
  7 28  1  0
  8 29  1  0
 10 30  1  0
 12 31  1  0
 13 32  1  0
 14 33  1  0
 16 34  1  0
 17 35  1  0
 17 36  1  0
 18 37  1  0
 18 38  1  0
M  END
>  <Energy>  (2) 
40.26820622438301

>  <Real charge>  (2) 
0

>  <Mult>  (2) 
1

$$$$
