mol_587 39
     RDKit          3D

 22 23  0  0  0  0  0  0  0  0999 V2000
    5.2501    0.5598   -0.2029 Cl  0  0  0  0  0  0  0  0  0  0  0  0
    3.5178    0.3751   -0.1360 C   0  0  0  0  0  0  0  0  0  0  0  0
    2.6820    1.4453   -0.4994 C   0  0  0  0  0  0  0  0  0  0  0  0
    3.3761    2.9579   -1.0173 Cl  0  0  0  0  0  0  0  0  0  0  0  0
    1.2825    1.2938   -0.4445 C   0  0  0  0  0  0  0  0  0  0  0  0
    0.2466    2.6247   -0.8965 Cl  0  0  0  0  0  0  0  0  0  0  0  0
    0.6978    0.0744   -0.0270 C   0  0  0  0  0  0  0  0  0  0  0  0
   -0.7694   -0.0821    0.0297 C   0  0  0  0  0  0  0  0  0  0  0  0
   -1.4845   -0.5481   -1.0855 C   0  0  0  0  0  0  0  0  0  0  0  0
   -2.8720   -0.6957   -1.0307 C   0  0  0  0  0  0  0  0  0  0  0  0
   -3.5617   -0.3798    0.1377 C   0  0  0  0  0  0  0  0  0  0  0  0
   -2.8668    0.0837    1.2526 C   0  0  0  0  0  0  0  0  0  0  0  0
   -1.4793    0.2321    1.2001 C   0  0  0  0  0  0  0  0  0  0  0  0
    1.5562   -0.9911    0.3348 C   0  0  0  0  0  0  0  0  0  0  0  0
    0.8614   -2.5066    0.8537 Cl  0  0  0  0  0  0  0  0  0  0  0  0
    2.9563   -0.8441    0.2815 C   0  0  0  0  0  0  0  0  0  0  0  0
    3.9908   -2.1724    0.7325 Cl  0  0  0  0  0  0  0  0  0  0  0  0
   -0.9655   -0.8005   -2.0077 H   0  0  0  0  0  0  0  0  0  0  0  0
   -3.4146   -1.0574   -1.9005 H   0  0  0  0  0  0  0  0  0  0  0  0
   -4.6419   -0.4950    0.1794 H   0  0  0  0  0  0  0  0  0  0  0  0
   -3.4055    0.3301    2.1641 H   0  0  0  0  0  0  0  0  0  0  0  0
   -0.9562    0.5956    2.0820 H   0  0  0  0  0  0  0  0  0  0  0  0
  1  2  1  0
  2  3  2  0
  3  4  1  0
  3  5  1  0
  5  6  1  0
  5  7  2  0
  7  8  1  0
  8  9  2  0
  9 10  1  0
 10 11  2  0
 11 12  1  0
 12 13  2  0
  7 14  1  0
 14 15  1  0
 14 16  2  0
 16 17  1  0
 13  8  1  0
 16  2  1  0
  9 18  1  0
 10 19  1  0
 11 20  1  0
 12 21  1  0
 13 22  1  0
M  END
>  <Energy>  (1) 
59.586716110367625

>  <Real charge>  (1) 
0

>  <Mult>  (1) 
1

$$$$
