mol_873 245
     RDKit          3D

 33 33  0  0  0  0  0  0  0  0999 V2000
    2.4450   -2.6251    0.1840 C   0  0  0  0  0  0  0  0  0  0  0  0
    2.4400   -1.1943   -0.0812 N   0  0  0  0  0  0  0  0  0  0  0  0
    3.5393   -0.4253    0.4824 C   0  0  0  0  0  0  0  0  0  0  0  0
    1.1834   -0.5892    0.0663 C   0  0  0  0  0  0  0  0  0  0  0  0
    0.0969   -1.3459   -0.0233 N   0  0  0  0  0  0  0  0  0  0  0  0
   -1.0795   -0.7448    0.1050 C   0  0  0  0  0  0  0  0  0  0  0  0
   -1.1958    0.5611    0.3122 N   0  0  0  0  0  0  0  0  0  0  0  0
   -0.0764    1.2715    0.3785 C   0  0  0  0  0  0  0  0  0  0  0  0
    1.1261    0.7230    0.2573 N   0  0  0  0  0  0  0  0  0  0  0  0
   -0.1651    2.6505    0.6099 N   0  0  0  0  0  0  0  0  0  0  0  0
    1.0051    3.4052    0.1896 C   0  0  0  0  0  0  0  0  0  0  0  0
   -1.4632    3.2309    0.3060 C   0  0  0  0  0  0  0  0  0  0  0  0
   -2.2421   -1.5244    0.0436 N   0  0  0  0  0  0  0  0  0  0  0  0
   -2.0778   -2.7917   -0.6510 C   0  0  0  0  0  0  0  0  0  0  0  0
   -3.4564   -0.7755   -0.2375 C   0  0  0  0  0  0  0  0  0  0  0  0
    1.7835   -3.1664   -0.5023 H   0  0  0  0  0  0  0  0  0  0  0  0
    3.4495   -3.0356    0.0300 H   0  0  0  0  0  0  0  0  0  0  0  0
    2.1509   -2.8432    1.2174 H   0  0  0  0  0  0  0  0  0  0  0  0
    4.4901   -0.9438    0.3138 H   0  0  0  0  0  0  0  0  0  0  0  0
    3.4215   -0.2891    1.5638 H   0  0  0  0  0  0  0  0  0  0  0  0
    3.6352    0.5556    0.0025 H   0  0  0  0  0  0  0  0  0  0  0  0
    0.8760    4.4681    0.4237 H   0  0  0  0  0  0  0  0  0  0  0  0
    1.1703    3.3199   -0.8908 H   0  0  0  0  0  0  0  0  0  0  0  0
    1.9081    3.0814    0.7199 H   0  0  0  0  0  0  0  0  0  0  0  0
   -2.2594    2.7809    0.9103 H   0  0  0  0  0  0  0  0  0  0  0  0
   -1.4656    4.3011    0.5423 H   0  0  0  0  0  0  0  0  0  0  0  0
   -1.7115    3.1238   -0.7564 H   0  0  0  0  0  0  0  0  0  0  0  0
   -1.7950   -2.6406   -1.6993 H   0  0  0  0  0  0  0  0  0  0  0  0
   -3.0169   -3.3568   -0.6376 H   0  0  0  0  0  0  0  0  0  0  0  0
   -1.3300   -3.4274   -0.1629 H   0  0  0  0  0  0  0  0  0  0  0  0
   -3.6519   -0.0183    0.5306 H   0  0  0  0  0  0  0  0  0  0  0  0
   -3.4102   -0.2906   -1.2196 H   0  0  0  0  0  0  0  0  0  0  0  0
   -4.3242   -1.4449   -0.2371 H   0  0  0  0  0  0  0  0  0  0  0  0
  1  2  1  0
  2  3  1  0
  2  4  1  0
  4  5  2  0
  5  6  1  0
  6  7  2  0
  7  8  1  0
  8  9  2  0
  8 10  1  0
 10 11  1  0
 10 12  1  0
  6 13  1  0
 13 14  1  0
 13 15  1  0
  9  4  1  0
  1 16  1  0
  1 17  1  0
  1 18  1  0
  3 19  1  0
  3 20  1  0
  3 21  1  0
 11 22  1  0
 11 23  1  0
 11 24  1  0
 12 25  1  0
 12 26  1  0
 12 27  1  0
 14 28  1  0
 14 29  1  0
 14 30  1  0
 15 31  1  0
 15 32  1  0
 15 33  1  0
M  END
>  <Energy>  (1) 
-246.63316920218475

>  <Real charge>  (1) 
0

>  <Mult>  (1) 
1

$$$$
mol_873 528
     RDKit          3D

 33 33  0  0  0  0  0  0  0  0999 V2000
   -2.2001    2.7840    0.1020 C   0  0  0  0  0  0  0  0  0  0  0  0
   -0.8171    2.5936   -0.3023 N   0  0  0  0  0  0  0  0  0  0  0  0
    0.1587    3.5403    0.2112 C   0  0  0  0  0  0  0  0  0  0  0  0
   -0.3891    1.2609   -0.3184 C   0  0  0  0  0  0  0  0  0  0  0  0
   -1.3013    0.2989   -0.3837 N   0  0  0  0  0  0  0  0  0  0  0  0
   -0.8662   -0.9545   -0.4231 C   0  0  0  0  0  0  0  0  0  0  0  0
    0.4239   -1.2646   -0.3886 N   0  0  0  0  0  0  0  0  0  0  0  0
    1.2919   -0.2625   -0.3232 C   0  0  0  0  0  0  0  0  0  0  0  0
    0.9136    1.0091   -0.2812 N   0  0  0  0  0  0  0  0  0  0  0  0
    2.6603   -0.5578   -0.3122 N   0  0  0  0  0  0  0  0  0  0  0  0
    2.9867   -1.9165    0.0873 C   0  0  0  0  0  0  0  0  0  0  0  0
    3.5082    0.5049    0.2017 C   0  0  0  0  0  0  0  0  0  0  0  0
   -1.8042   -1.9892   -0.5189 N   0  0  0  0  0  0  0  0  0  0  0  0
   -3.1508   -1.6303   -0.1066 C   0  0  0  0  0  0  0  0  0  0  0  0
   -1.3136   -3.2953   -0.1118 C   0  0  0  0  0  0  0  0  0  0  0  0
   -2.8934    2.2603   -0.5663 H   0  0  0  0  0  0  0  0  0  0  0  0
   -2.4685    3.8454    0.0530 H   0  0  0  0  0  0  0  0  0  0  0  0
   -2.3661    2.4456    1.1314 H   0  0  0  0  0  0  0  0  0  0  0  0
    0.4034    3.3336    1.2596 H   0  0  0  0  0  0  0  0  0  0  0  0
   -0.2358    4.5613    0.1564 H   0  0  0  0  0  0  0  0  0  0  0  0
    1.0802    3.5344   -0.3824 H   0  0  0  0  0  0  0  0  0  0  0  0
    2.5315   -2.6559   -0.5817 H   0  0  0  0  0  0  0  0  0  0  0  0
    2.6695   -2.1178    1.1171 H   0  0  0  0  0  0  0  0  0  0  0  0
    4.0692   -2.0793    0.0345 H   0  0  0  0  0  0  0  0  0  0  0  0
    4.5628    0.2126    0.1428 H   0  0  0  0  0  0  0  0  0  0  0  0
    3.2818    0.7251    1.2514 H   0  0  0  0  0  0  0  0  0  0  0  0
    3.4101    1.4230   -0.3890 H   0  0  0  0  0  0  0  0  0  0  0  0
   -3.1832   -1.3478    0.9522 H   0  0  0  0  0  0  0  0  0  0  0  0
   -3.8306   -2.4786   -0.2457 H   0  0  0  0  0  0  0  0  0  0  0  0
   -3.5547   -0.8102   -0.7114 H   0  0  0  0  0  0  0  0  0  0  0  0
   -2.0915   -4.0546   -0.2507 H   0  0  0  0  0  0  0  0  0  0  0  0
   -1.0260   -3.3027    0.9460 H   0  0  0  0  0  0  0  0  0  0  0  0
   -0.4596   -3.6150   -0.7202 H   0  0  0  0  0  0  0  0  0  0  0  0
  1  2  1  0
  2  3  1  0
  2  4  1  0
  4  5  2  0
  5  6  1  0
  6  7  2  0
  7  8  1  0
  8  9  2  0
  8 10  1  0
 10 11  1  0
 10 12  1  0
  6 13  1  0
 13 14  1  0
 13 15  1  0
  9  4  1  0
  1 16  1  0
  1 17  1  0
  1 18  1  0
  3 19  1  0
  3 20  1  0
  3 21  1  0
 11 22  1  0
 11 23  1  0
 11 24  1  0
 12 25  1  0
 12 26  1  0
 12 27  1  0
 14 28  1  0
 14 29  1  0
 14 30  1  0
 15 31  1  0
 15 32  1  0
 15 33  1  0
M  END
>  <Energy>  (2) 
-245.8157877132713

>  <Real charge>  (2) 
0

>  <Mult>  (2) 
1

$$$$
