mol_933 12
     RDKit          3D

 14 15  0  0  0  0  0  0  0  0999 V2000
    2.1748    0.5977    0.2887 C   0  0  0  0  0  0  0  0  0  0  0  0
    2.1675   -0.5132   -0.5265 C   0  0  0  0  0  0  0  0  0  0  0  0
    1.0233   -1.1307   -0.9009 N   0  0  0  0  0  0  0  0  0  0  0  0
   -0.1338   -0.6290   -0.4526 C   0  0  0  0  0  0  0  0  0  0  0  0
   -1.2622   -1.2361   -0.8204 N   0  0  0  0  0  0  0  0  0  0  0  0
   -2.4087   -0.7224   -0.3641 C   0  0  0  0  0  0  0  0  0  0  0  0
   -2.5263    0.3463    0.4287 N   0  0  0  0  0  0  0  0  0  0  0  0
   -1.3593    0.9294    0.7763 C   0  0  0  0  0  0  0  0  0  0  0  0
   -0.1116    0.5050    0.3785 C   0  0  0  0  0  0  0  0  0  0  0  0
    1.0332    1.1333    0.7607 N   0  0  0  0  0  0  0  0  0  0  0  0
    3.0964    1.0861    0.5836 H   0  0  0  0  0  0  0  0  0  0  0  0
    3.0854   -0.9464   -0.9079 H   0  0  0  0  0  0  0  0  0  0  0  0
   -3.3252   -1.2189   -0.6653 H   0  0  0  0  0  0  0  0  0  0  0  0
   -1.4535    1.7988    1.4211 H   0  0  0  0  0  0  0  0  0  0  0  0
  1  2  2  0
  2  3  1  0
  3  4  2  0
  4  5  1  0
  5  6  2  0
  6  7  1  0
  7  8  2  0
  8  9  1  0
  9 10  2  0
  9  4  1  0
 10  1  1  0
  1 11  1  0
  2 12  1  0
  6 13  1  0
  8 14  1  0
M  END
>  <Energy>  (1) 
66.49791524364262

>  <Real charge>  (1) 
0

>  <Mult>  (1) 
1

$$$$
