mol_1114 51
     RDKit          3D

 31 32  0  0  0  0  0  0  0  0999 V2000
   -1.9470    2.5203   -0.9113 C   0  0  0  0  0  0  0  0  0  0  0  0
   -2.3259    1.1709   -0.3553 C   0  0  0  0  0  0  0  0  0  0  0  0
   -1.4287    0.2969    0.1538 C   0  0  0  0  0  0  0  0  0  0  0  0
    0.0104    0.6451    0.3214 C   0  0  0  0  0  0  0  0  0  0  0  0
    0.3168    1.7695    0.7066 O   0  0  0  0  0  0  0  0  0  0  0  0
    0.8891   -0.3663   -0.0133 N   0  0  0  0  0  0  0  0  0  0  0  0
    2.3000   -0.3295    0.0223 C   0  0  0  0  0  0  0  0  0  0  0  0
    3.0488    0.7906    0.3863 C   0  0  0  0  0  0  0  0  0  0  0  0
    4.4470    0.7378    0.3900 C   0  0  0  0  0  0  0  0  0  0  0  0
    5.1075   -0.4343    0.0301 C   0  0  0  0  0  0  0  0  0  0  0  0
    4.3706   -1.5573   -0.3339 C   0  0  0  0  0  0  0  0  0  0  0  0
    2.9743   -1.5045   -0.3377 C   0  0  0  0  0  0  0  0  0  0  0  0
   -1.9358   -1.2689    0.6561 S   0  0  0  0  0  6  0  0  0  0  0  0
   -1.1492   -2.2603   -0.0629 O   0  0  0  0  0  0  0  0  0  0  0  0
   -2.0088   -1.3193    2.1043 O   0  0  0  0  0  0  0  0  0  0  0  0
   -3.5885   -1.3879    0.0498 C   0  0  0  0  0  0  0  0  0  0  0  0
   -4.2589   -0.0743    0.3294 C   0  0  0  0  0  0  0  0  0  0  0  0
   -3.6844    0.9451   -0.4864 O   0  0  0  0  0  0  0  0  0  0  0  0
   -2.6275    2.8006   -1.7236 H   0  0  0  0  0  0  0  0  0  0  0  0
   -2.0203    3.2847   -0.1316 H   0  0  0  0  0  0  0  0  0  0  0  0
   -0.9403    2.5343   -1.3391 H   0  0  0  0  0  0  0  0  0  0  0  0
    0.4958   -1.2624   -0.3021 H   0  0  0  0  0  0  0  0  0  0  0  0
    2.5792    1.7252    0.6750 H   0  0  0  0  0  0  0  0  0  0  0  0
    5.0173    1.6177    0.6773 H   0  0  0  0  0  0  0  0  0  0  0  0
    6.1936   -0.4713    0.0360 H   0  0  0  0  0  0  0  0  0  0  0  0
    4.8803   -2.4757   -0.6129 H   0  0  0  0  0  0  0  0  0  0  0  0
    2.4224   -2.3973   -0.6222 H   0  0  0  0  0  0  0  0  0  0  0  0
   -4.0785   -2.2192    0.5632 H   0  0  0  0  0  0  0  0  0  0  0  0
   -3.5360   -1.5969   -1.0234 H   0  0  0  0  0  0  0  0  0  0  0  0
   -4.2047    0.2239    1.3835 H   0  0  0  0  0  0  0  0  0  0  0  0
   -5.3190   -0.1373    0.0631 H   0  0  0  0  0  0  0  0  0  0  0  0
  1  2  1  0
  2  3  2  0
  3  4  1  0
  4  5  2  0
  4  6  1  0
  6  7  1  0
  7  8  2  0
  8  9  1  0
  9 10  2  0
 10 11  1  0
 11 12  2  0
  3 13  1  0
 13 14  2  0
 13 15  2  0
 13 16  1  0
 16 17  1  0
 17 18  1  0
 18  2  1  0
 12  7  1  0
  1 19  1  0
  1 20  1  0
  1 21  1  0
  6 22  1  0
  8 23  1  0
  9 24  1  0
 10 25  1  0
 11 26  1  0
 12 27  1  0
 16 28  1  0
 16 29  1  0
 17 30  1  0
 17 31  1  0
M  END
>  <Energy>  (1) 
-29.50095891642628

>  <Real charge>  (1) 
0

>  <Mult>  (1) 
1

$$$$
mol_1114 53
     RDKit          3D

 31 32  0  0  0  0  0  0  0  0999 V2000
   -1.5790   -2.8046    0.6985 C   0  0  0  0  0  0  0  0  0  0  0  0
   -2.1276   -1.5097    0.1564 C   0  0  0  0  0  0  0  0  0  0  0  0
   -1.3537   -0.5358   -0.3691 C   0  0  0  0  0  0  0  0  0  0  0  0
    0.1216   -0.6567   -0.4730 C   0  0  0  0  0  0  0  0  0  0  0  0
    0.6156   -1.6876   -0.9165 O   0  0  0  0  0  0  0  0  0  0  0  0
    0.8006    0.4465    0.0096 N   0  0  0  0  0  0  0  0  0  0  0  0
    2.1983    0.6356    0.0673 C   0  0  0  0  0  0  0  0  0  0  0  0
    3.1362   -0.3053   -0.3608 C   0  0  0  0  0  0  0  0  0  0  0  0
    4.5056   -0.0354   -0.2644 C   0  0  0  0  0  0  0  0  0  0  0  0
    4.9483    1.1765    0.2596 C   0  0  0  0  0  0  0  0  0  0  0  0
    4.0217    2.1225    0.6878 C   0  0  0  0  0  0  0  0  0  0  0  0
    2.6539    1.8530    0.5917 C   0  0  0  0  0  0  0  0  0  0  0  0
   -2.0581    0.9077   -0.9790 S   0  0  0  0  0  6  0  0  0  0  0  0
   -1.6723    1.1091   -2.3625 O   0  0  0  0  0  0  0  0  0  0  0  0
   -1.8134    1.9610   -0.0055 O   0  0  0  0  0  0  0  0  0  0  0  0
   -3.7892    0.5653   -0.9732 C   0  0  0  0  0  0  0  0  0  0  0  0
   -4.1022   -0.1571    0.3047 C   0  0  0  0  0  0  0  0  0  0  0  0
   -3.5026   -1.4519    0.2977 O   0  0  0  0  0  0  0  0  0  0  0  0
   -2.1906   -3.1522    1.5390 H   0  0  0  0  0  0  0  0  0  0  0  0
   -1.6001   -3.5767   -0.0768 H   0  0  0  0  0  0  0  0  0  0  0  0
   -0.5593   -2.7086    1.0821 H   0  0  0  0  0  0  0  0  0  0  0  0
    0.2506    1.2284    0.3594 H   0  0  0  0  0  0  0  0  0  0  0  0
    2.8391   -1.2617   -0.7785 H   0  0  0  0  0  0  0  0  0  0  0  0
    5.2247   -0.7771   -0.6034 H   0  0  0  0  0  0  0  0  0  0  0  0
    6.0129    1.3827    0.3308 H   0  0  0  0  0  0  0  0  0  0  0  0
    4.3614    3.0714    1.0944 H   0  0  0  0  0  0  0  0  0  0  0  0
    1.9518    2.6113    0.9296 H   0  0  0  0  0  0  0  0  0  0  0  0
   -4.0082   -0.0517   -1.8504 H   0  0  0  0  0  0  0  0  0  0  0  0
   -4.3223    1.5164   -1.0505 H   0  0  0  0  0  0  0  0  0  0  0  0
   -3.7798    0.3911    1.1984 H   0  0  0  0  0  0  0  0  0  0  0  0
   -5.1837   -0.3063    0.3881 H   0  0  0  0  0  0  0  0  0  0  0  0
  1  2  1  0
  2  3  2  0
  3  4  1  0
  4  5  2  0
  4  6  1  0
  6  7  1  0
  7  8  2  0
  8  9  1  0
  9 10  2  0
 10 11  1  0
 11 12  2  0
  3 13  1  0
 13 14  2  0
 13 15  2  0
 13 16  1  0
 16 17  1  0
 17 18  1  0
 18  2  1  0
 12  7  1  0
  1 19  1  0
  1 20  1  0
  1 21  1  0
  6 22  1  0
  8 23  1  0
  9 24  1  0
 10 25  1  0
 11 26  1  0
 12 27  1  0
 16 28  1  0
 16 29  1  0
 17 30  1  0
 17 31  1  0
M  END
>  <Energy>  (2) 
-28.567572377005007

>  <Real charge>  (2) 
0

>  <Mult>  (2) 
1

$$$$
