mol_657 39
     RDKit          3D

 29 30  0  0  0  0  0  0  0  0999 V2000
    3.5643    0.4934    2.6665 F   0  0  0  0  0  0  0  0  0  0  0  0
    3.9969    0.0154    1.4669 C   0  0  0  0  0  0  0  0  0  0  0  0
    5.1692    0.6643    1.2139 F   0  0  0  0  0  0  0  0  0  0  0  0
    4.3320   -1.2869    1.6771 F   0  0  0  0  0  0  0  0  0  0  0  0
    2.9766    0.1793    0.3670 C   0  0  0  0  0  0  0  0  0  0  0  0
    3.3503    0.6413   -0.8991 C   0  0  0  0  0  0  0  0  0  0  0  0
    2.3949    0.7726   -1.9010 C   0  0  0  0  0  0  0  0  0  0  0  0
    1.0602    0.4394   -1.6477 C   0  0  0  0  0  0  0  0  0  0  0  0
    0.6498   -0.0342   -0.3916 C   0  0  0  0  0  0  0  0  0  0  0  0
    1.6290   -0.1591    0.6036 C   0  0  0  0  0  0  0  0  0  0  0  0
   -0.7126   -0.3683   -0.1520 N   0  0  0  0  0  0  0  0  0  0  0  0
   -1.7519   -0.1715   -1.1413 C   0  0  0  0  0  0  0  0  0  0  0  0
   -3.0574   -0.2840   -0.3599 C   0  0  0  0  0  0  0  0  0  0  0  0
   -3.4781    1.0504    0.2669 C   0  0  0  0  0  0  0  0  0  0  0  0
   -4.0129    2.2076   -0.9775 Cl  0  0  0  0  0  0  0  0  0  0  0  0
   -2.7017   -1.2874    0.7338 C   0  0  0  0  0  0  0  0  0  0  0  0
   -2.8961   -2.9663    0.1691 Cl  0  0  0  0  0  0  0  0  0  0  0  0
   -1.2238   -1.0365    0.9764 C   0  0  0  0  0  0  0  0  0  0  0  0
   -0.6396   -1.3950    1.9880 O   0  0  0  0  0  0  0  0  0  0  0  0
    4.3870    0.9003   -1.1092 H   0  0  0  0  0  0  0  0  0  0  0  0
    2.6864    1.1306   -2.8859 H   0  0  0  0  0  0  0  0  0  0  0  0
    0.3620    0.5475   -2.4724 H   0  0  0  0  0  0  0  0  0  0  0  0
    1.3759   -0.5129    1.6004 H   0  0  0  0  0  0  0  0  0  0  0  0
   -1.6507    0.7974   -1.6374 H   0  0  0  0  0  0  0  0  0  0  0  0
   -1.6699   -0.9715   -1.8866 H   0  0  0  0  0  0  0  0  0  0  0  0
   -3.8721   -0.6417   -1.0011 H   0  0  0  0  0  0  0  0  0  0  0  0
   -2.6650    1.5216    0.8281 H   0  0  0  0  0  0  0  0  0  0  0  0
   -4.3233    0.9070    0.9474 H   0  0  0  0  0  0  0  0  0  0  0  0
   -3.2796   -1.1528    1.6522 H   0  0  0  0  0  0  0  0  0  0  0  0
  1  2  1  0
  2  3  1  0
  2  4  1  0
  2  5  1  0
  5  6  2  0
  6  7  1  0
  7  8  2  0
  8  9  1  0
  9 10  2  0
  9 11  1  0
 11 12  1  0
 12 13  1  0
 13 14  1  0
 14 15  1  0
 13 16  1  0
 16 17  1  0
 16 18  1  0
 18 19  2  0
 10  5  1  0
 18 11  1  0
  6 20  1  0
  7 21  1  0
  8 22  1  0
 10 23  1  0
 12 24  1  0
 12 25  1  0
 13 26  1  0
 14 27  1  0
 14 28  1  0
 16 29  1  0
M  END
>  <Energy>  (1) 
42.19704811491464

>  <Real charge>  (1) 
0

>  <Mult>  (1) 
1

$$$$
mol_657 114
     RDKit          3D

 29 30  0  0  0  0  0  0  0  0999 V2000
   -3.6749    1.8889    1.9364 F   0  0  0  0  0  0  0  0  0  0  0  0
   -4.0109    0.6506    1.4801 C   0  0  0  0  0  0  0  0  0  0  0  0
   -5.2477    0.7877    0.9225 F   0  0  0  0  0  0  0  0  0  0  0  0
   -4.1857   -0.1258    2.5840 F   0  0  0  0  0  0  0  0  0  0  0  0
   -2.9898    0.0790    0.5267 C   0  0  0  0  0  0  0  0  0  0  0  0
   -3.3850   -0.5655   -0.6501 C   0  0  0  0  0  0  0  0  0  0  0  0
   -2.4273   -1.0959   -1.5078 C   0  0  0  0  0  0  0  0  0  0  0  0
   -1.0682   -0.9910   -1.1948 C   0  0  0  0  0  0  0  0  0  0  0  0
   -0.6352   -0.3582   -0.0189 C   0  0  0  0  0  0  0  0  0  0  0  0
   -1.6168    0.1695    0.8312 C   0  0  0  0  0  0  0  0  0  0  0  0
    0.7516   -0.2599    0.2826 N   0  0  0  0  0  0  0  0  0  0  0  0
    1.7835   -0.7133   -0.6231 C   0  0  0  0  0  0  0  0  0  0  0  0
    3.0646   -0.0723   -0.1009 C   0  0  0  0  0  0  0  0  0  0  0  0
    3.2361    1.3298   -0.6962 C   0  0  0  0  0  0  0  0  0  0  0  0
    4.7803    2.0567   -0.1907 Cl  0  0  0  0  0  0  0  0  0  0  0  0
    2.8218   -0.0317    1.4065 C   0  0  0  0  0  0  0  0  0  0  0  0
    3.2556   -1.5823    2.1748 Cl  0  0  0  0  0  0  0  0  0  0  0  0
    1.3145    0.1382    1.5118 C   0  0  0  0  0  0  0  0  0  0  0  0
    0.7482    0.5320    2.5205 O   0  0  0  0  0  0  0  0  0  0  0  0
   -4.4406   -0.6571   -0.9019 H   0  0  0  0  0  0  0  0  0  0  0  0
   -2.7363   -1.5996   -2.4210 H   0  0  0  0  0  0  0  0  0  0  0  0
   -0.3671   -1.4398   -1.8919 H   0  0  0  0  0  0  0  0  0  0  0  0
   -1.3467    0.6798    1.7531 H   0  0  0  0  0  0  0  0  0  0  0  0
    1.5768   -0.4104   -1.6545 H   0  0  0  0  0  0  0  0  0  0  0  0
    1.8358   -1.8069   -0.5665 H   0  0  0  0  0  0  0  0  0  0  0  0
    3.9364   -0.6783   -0.3757 H   0  0  0  0  0  0  0  0  0  0  0  0
    3.2504    1.2864   -1.7899 H   0  0  0  0  0  0  0  0  0  0  0  0
    2.4352    2.0119   -0.3939 H   0  0  0  0  0  0  0  0  0  0  0  0
    3.3413    0.7772    1.9249 H   0  0  0  0  0  0  0  0  0  0  0  0
  1  2  1  0
  2  3  1  0
  2  4  1  0
  2  5  1  0
  5  6  2  0
  6  7  1  0
  7  8  2  0
  8  9  1  0
  9 10  2  0
  9 11  1  0
 11 12  1  0
 12 13  1  0
 13 14  1  0
 14 15  1  0
 13 16  1  0
 16 17  1  0
 16 18  1  0
 18 19  2  0
 10  5  1  0
 18 11  1  0
  6 20  1  0
  7 21  1  0
  8 22  1  0
 10 23  1  0
 12 24  1  0
 12 25  1  0
 13 26  1  0
 14 27  1  0
 14 28  1  0
 16 29  1  0
M  END
>  <Energy>  (2) 
42.37686044209349

>  <Real charge>  (2) 
0

>  <Mult>  (2) 
1

$$$$
mol_657 123
     RDKit          3D

 29 30  0  0  0  0  0  0  0  0999 V2000
    3.9566   -0.0720    2.3561 F   0  0  0  0  0  0  0  0  0  0  0  0
    3.8927    0.5956    1.1716 C   0  0  0  0  0  0  0  0  0  0  0  0
    3.5768    1.8834    1.4861 F   0  0  0  0  0  0  0  0  0  0  0  0
    5.1665    0.6325    0.6915 F   0  0  0  0  0  0  0  0  0  0  0  0
    2.9100   -0.0318    0.2143 C   0  0  0  0  0  0  0  0  0  0  0  0
    3.3346   -0.9710   -0.7302 C   0  0  0  0  0  0  0  0  0  0  0  0
    2.4127   -1.5510   -1.5946 C   0  0  0  0  0  0  0  0  0  0  0  0
    1.0589   -1.2050   -1.5190 C   0  0  0  0  0  0  0  0  0  0  0  0
    0.5941   -0.2771   -0.5794 C   0  0  0  0  0  0  0  0  0  0  0  0
    1.5414    0.2987    0.2843 C   0  0  0  0  0  0  0  0  0  0  0  0
   -0.7817    0.0765   -0.4885 N   0  0  0  0  0  0  0  0  0  0  0  0
   -1.2938    0.9804    0.5208 C   0  0  0  0  0  0  0  0  0  0  0  0
   -2.8053    0.7750    0.4954 C   0  0  0  0  0  0  0  0  0  0  0  0
   -3.2509   -0.3866    1.3912 C   0  0  0  0  0  0  0  0  0  0  0  0
   -3.0677    0.0210    3.1156 Cl  0  0  0  0  0  0  0  0  0  0  0  0
   -3.0676    0.4367   -0.9693 C   0  0  0  0  0  0  0  0  0  0  0  0
   -3.2508    1.9077   -1.9582 Cl  0  0  0  0  0  0  0  0  0  0  0  0
   -1.7953   -0.2706   -1.4021 C   0  0  0  0  0  0  0  0  0  0  0  0
   -1.7306   -0.9865   -2.3904 O   0  0  0  0  0  0  0  0  0  0  0  0
    4.3846   -1.2514   -0.7994 H   0  0  0  0  0  0  0  0  0  0  0  0
    2.7404   -2.2787   -2.3340 H   0  0  0  0  0  0  0  0  0  0  0  0
    0.3882   -1.6987   -2.2159 H   0  0  0  0  0  0  0  0  0  0  0  0
    1.2455    1.0358    1.0273 H   0  0  0  0  0  0  0  0  0  0  0  0
   -1.0312    2.0037    0.2275 H   0  0  0  0  0  0  0  0  0  0  0  0
   -0.8657    0.7638    1.5030 H   0  0  0  0  0  0  0  0  0  0  0  0
   -3.3328    1.6831    0.8117 H   0  0  0  0  0  0  0  0  0  0  0  0
   -2.6766   -1.2998    1.2052 H   0  0  0  0  0  0  0  0  0  0  0  0
   -4.3101   -0.6120    1.2318 H   0  0  0  0  0  0  0  0  0  0  0  0
   -3.9427   -0.2018   -1.1182 H   0  0  0  0  0  0  0  0  0  0  0  0
  1  2  1  0
  2  3  1  0
  2  4  1  0
  2  5  1  0
  5  6  2  0
  6  7  1  0
  7  8  2  0
  8  9  1  0
  9 10  2  0
  9 11  1  0
 11 12  1  0
 12 13  1  0
 13 14  1  0
 14 15  1  0
 13 16  1  0
 16 17  1  0
 16 18  1  0
 18 19  2  0
 10  5  1  0
 18 11  1  0
  6 20  1  0
  7 21  1  0
  8 22  1  0
 10 23  1  0
 12 24  1  0
 12 25  1  0
 13 26  1  0
 14 27  1  0
 14 28  1  0
 16 29  1  0
M  END
>  <Energy>  (3) 
42.378316493675676

>  <Real charge>  (3) 
0

>  <Mult>  (3) 
1

$$$$
mol_657 109
     RDKit          3D

 29 30  0  0  0  0  0  0  0  0999 V2000
    5.1025    0.0591    1.1968 F   0  0  0  0  0  0  0  0  0  0  0  0
    3.9814    0.7671    0.8859 C   0  0  0  0  0  0  0  0  0  0  0  0
    3.5585    1.3245    2.0554 F   0  0  0  0  0  0  0  0  0  0  0  0
    4.3951    1.8040    0.1073 F   0  0  0  0  0  0  0  0  0  0  0  0
    2.9163   -0.0640    0.2149 C   0  0  0  0  0  0  0  0  0  0  0  0
    3.2591   -1.1963   -0.5300 C   0  0  0  0  0  0  0  0  0  0  0  0
    2.2669   -1.9363   -1.1638 C   0  0  0  0  0  0  0  0  0  0  0  0
    0.9256   -1.5503   -1.0641 C   0  0  0  0  0  0  0  0  0  0  0  0
    0.5441   -0.4189   -0.3332 C   0  0  0  0  0  0  0  0  0  0  0  0
    1.5615    0.3164    0.2985 C   0  0  0  0  0  0  0  0  0  0  0  0
   -0.8171   -0.0177   -0.2239 N   0  0  0  0  0  0  0  0  0  0  0  0
   -1.2409    1.1045    0.5879 C   0  0  0  0  0  0  0  0  0  0  0  0
   -2.7510    0.9367    0.7245 C   0  0  0  0  0  0  0  0  0  0  0  0
   -3.1325    0.0206    1.8931 C   0  0  0  0  0  0  0  0  0  0  0  0
   -2.8112    0.8052    3.4597 Cl  0  0  0  0  0  0  0  0  0  0  0  0
   -3.1312    0.2810   -0.6000 C   0  0  0  0  0  0  0  0  0  0  0  0
   -3.3813    1.4929   -1.8823 Cl  0  0  0  0  0  0  0  0  0  0  0  0
   -1.9024   -0.5381   -0.9544 C   0  0  0  0  0  0  0  0  0  0  0  0
   -1.9214   -1.4615   -1.7546 O   0  0  0  0  0  0  0  0  0  0  0  0
    4.2992   -1.5060   -0.6203 H   0  0  0  0  0  0  0  0  0  0  0  0
    2.5299   -2.8195   -1.7421 H   0  0  0  0  0  0  0  0  0  0  0  0
    0.1977   -2.1739   -1.5745 H   0  0  0  0  0  0  0  0  0  0  0  0
    1.3320    1.2170    0.8636 H   0  0  0  0  0  0  0  0  0  0  0  0
   -0.7374    1.1061    1.5582 H   0  0  0  0  0  0  0  0  0  0  0  0
   -0.9950    2.0274    0.0495 H   0  0  0  0  0  0  0  0  0  0  0  0
   -3.2452    1.9059    0.8638 H   0  0  0  0  0  0  0  0  0  0  0  0
   -2.5809   -0.9247    1.8783 H   0  0  0  0  0  0  0  0  0  0  0  0
   -4.2024   -0.2089    1.8696 H   0  0  0  0  0  0  0  0  0  0  0  0
   -4.0200   -0.3523   -0.5324 H   0  0  0  0  0  0  0  0  0  0  0  0
  1  2  1  0
  2  3  1  0
  2  4  1  0
  2  5  1  0
  5  6  2  0
  6  7  1  0
  7  8  2  0
  8  9  1  0
  9 10  2  0
  9 11  1  0
 11 12  1  0
 12 13  1  0
 13 14  1  0
 14 15  1  0
 13 16  1  0
 16 17  1  0
 16 18  1  0
 18 19  2  0
 10  5  1  0
 18 11  1  0
  6 20  1  0
  7 21  1  0
  8 22  1  0
 10 23  1  0
 12 24  1  0
 12 25  1  0
 13 26  1  0
 14 27  1  0
 14 28  1  0
 16 29  1  0
M  END
>  <Energy>  (4) 
42.38086617297238

>  <Real charge>  (4) 
0

>  <Mult>  (4) 
1

$$$$
mol_657 17
     RDKit          3D

 29 30  0  0  0  0  0  0  0  0999 V2000
    3.1975    2.7982   -0.3057 F   0  0  0  0  0  0  0  0  0  0  0  0
    3.8046    1.5881   -0.4652 C   0  0  0  0  0  0  0  0  0  0  0  0
    4.9361    1.6387    0.2906 F   0  0  0  0  0  0  0  0  0  0  0  0
    4.2178    1.5470   -1.7611 F   0  0  0  0  0  0  0  0  0  0  0  0
    2.9007    0.4327   -0.1139 C   0  0  0  0  0  0  0  0  0  0  0  0
    3.4216   -0.7353    0.4509 C   0  0  0  0  0  0  0  0  0  0  0  0
    2.5769   -1.8001    0.7450 C   0  0  0  0  0  0  0  0  0  0  0  0
    1.2070   -1.7107    0.4739 C   0  0  0  0  0  0  0  0  0  0  0  0
    0.6500   -0.5606   -0.0975 C   0  0  0  0  0  0  0  0  0  0  0  0
    1.5200    0.5036   -0.3891 C   0  0  0  0  0  0  0  0  0  0  0  0
   -0.7418   -0.4569   -0.3742 N   0  0  0  0  0  0  0  0  0  0  0  0
   -1.3523    0.7509   -0.8840 C   0  0  0  0  0  0  0  0  0  0  0  0
   -2.8469    0.5556   -0.6550 C   0  0  0  0  0  0  0  0  0  0  0  0
   -3.2327    1.0246    0.7525 C   0  0  0  0  0  0  0  0  0  0  0  0
   -4.9904    0.9082    1.0084 Cl  0  0  0  0  0  0  0  0  0  0  0  0
   -3.0116   -0.9532   -0.8243 C   0  0  0  0  0  0  0  0  0  0  0  0
   -3.1911   -1.3973   -2.5430 Cl  0  0  0  0  0  0  0  0  0  0  0  0
   -1.6828   -1.5059   -0.3337 C   0  0  0  0  0  0  0  0  0  0  0  0
   -1.5195   -2.6700    0.0007 O   0  0  0  0  0  0  0  0  0  0  0  0
    4.4863   -0.8214    0.6631 H   0  0  0  0  0  0  0  0  0  0  0  0
    2.9783   -2.7097    1.1868 H   0  0  0  0  0  0  0  0  0  0  0  0
    0.5987   -2.5717    0.7350 H   0  0  0  0  0  0  0  0  0  0  0  0
    1.1519    1.4147   -0.8552 H   0  0  0  0  0  0  0  0  0  0  0  0
   -1.1216    0.8288   -1.9529 H   0  0  0  0  0  0  0  0  0  0  0  0
   -0.9820    1.6406   -0.3646 H   0  0  0  0  0  0  0  0  0  0  0  0
   -3.4258    1.1319   -1.3868 H   0  0  0  0  0  0  0  0  0  0  0  0
   -2.7452    0.4360    1.5362 H   0  0  0  0  0  0  0  0  0  0  0  0
   -2.9610    2.0748    0.8980 H   0  0  0  0  0  0  0  0  0  0  0  0
   -3.8428   -1.3818   -0.2602 H   0  0  0  0  0  0  0  0  0  0  0  0
  1  2  1  0
  2  3  1  0
  2  4  1  0
  2  5  1  0
  5  6  2  0
  6  7  1  0
  7  8  2  0
  8  9  1  0
  9 10  2  0
  9 11  1  0
 11 12  1  0
 12 13  1  0
 13 14  1  0
 14 15  1  0
 13 16  1  0
 16 17  1  0
 16 18  1  0
 18 19  2  0
 10  5  1  0
 18 11  1  0
  6 20  1  0
  7 21  1  0
  8 22  1  0
 10 23  1  0
 12 24  1  0
 12 25  1  0
 13 26  1  0
 14 27  1  0
 14 28  1  0
 16 29  1  0
M  END
>  <Energy>  (5) 
42.431419335211814

>  <Real charge>  (5) 
0

>  <Mult>  (5) 
1

$$$$
mol_657 149
     RDKit          3D

 29 30  0  0  0  0  0  0  0  0999 V2000
    4.0796    2.3262   -0.6579 F   0  0  0  0  0  0  0  0  0  0  0  0
    4.2765    1.2247    0.1183 C   0  0  0  0  0  0  0  0  0  0  0  0
    5.4902    0.7259   -0.2528 F   0  0  0  0  0  0  0  0  0  0  0  0
    4.4373    1.6819    1.3902 F   0  0  0  0  0  0  0  0  0  0  0  0
    3.1587    0.2173    0.0033 C   0  0  0  0  0  0  0  0  0  0  0  0
    3.4305   -1.1478   -0.1352 C   0  0  0  0  0  0  0  0  0  0  0  0
    2.3840   -2.0590   -0.2272 C   0  0  0  0  0  0  0  0  0  0  0  0
    1.0588   -1.6148   -0.1769 C   0  0  0  0  0  0  0  0  0  0  0  0
    0.7481   -0.2534   -0.0310 C   0  0  0  0  0  0  0  0  0  0  0  0
    1.8178    0.6477    0.0596 C   0  0  0  0  0  0  0  0  0  0  0  0
   -0.6068    0.1787    0.0205 N   0  0  0  0  0  0  0  0  0  0  0  0
   -1.7217   -0.7297   -0.1457 C   0  0  0  0  0  0  0  0  0  0  0  0
   -2.9122    0.1815   -0.4108 C   0  0  0  0  0  0  0  0  0  0  0  0
   -4.2607   -0.4597   -0.1225 C   0  0  0  0  0  0  0  0  0  0  0  0
   -4.5806   -1.7946   -1.2599 Cl  0  0  0  0  0  0  0  0  0  0  0  0
   -2.5803    1.4225    0.4153 C   0  0  0  0  0  0  0  0  0  0  0  0
   -3.0466    1.3101    2.1295 Cl  0  0  0  0  0  0  0  0  0  0  0  0
   -1.0628    1.4705    0.3470 C   0  0  0  0  0  0  0  0  0  0  0  0
   -0.4117    2.4780    0.5816 O   0  0  0  0  0  0  0  0  0  0  0  0
    4.4583   -1.5057   -0.1721 H   0  0  0  0  0  0  0  0  0  0  0  0
    2.5960   -3.1205   -0.3342 H   0  0  0  0  0  0  0  0  0  0  0  0
    0.2832   -2.3725   -0.2396 H   0  0  0  0  0  0  0  0  0  0  0  0
    1.6453    1.7162    0.1659 H   0  0  0  0  0  0  0  0  0  0  0  0
   -1.8389   -1.3141    0.7742 H   0  0  0  0  0  0  0  0  0  0  0  0
   -1.5583   -1.3979   -0.9974 H   0  0  0  0  0  0  0  0  0  0  0  0
   -2.8798    0.4817   -1.4693 H   0  0  0  0  0  0  0  0  0  0  0  0
   -4.3154   -0.8865    0.8827 H   0  0  0  0  0  0  0  0  0  0  0  0
   -5.0708    0.2667   -0.2377 H   0  0  0  0  0  0  0  0  0  0  0  0
   -3.0176    2.3265   -0.0180 H   0  0  0  0  0  0  0  0  0  0  0  0
  1  2  1  0
  2  3  1  0
  2  4  1  0
  2  5  1  0
  5  6  2  0
  6  7  1  0
  7  8  2  0
  8  9  1  0
  9 10  2  0
  9 11  1  0
 11 12  1  0
 12 13  1  0
 13 14  1  0
 14 15  1  0
 13 16  1  0
 16 17  1  0
 16 18  1  0
 18 19  2  0
 10  5  1  0
 18 11  1  0
  6 20  1  0
  7 21  1  0
  8 22  1  0
 10 23  1  0
 12 24  1  0
 12 25  1  0
 13 26  1  0
 14 27  1  0
 14 28  1  0
 16 29  1  0
M  END
>  <Energy>  (6) 
42.44521946246968

>  <Real charge>  (6) 
0

>  <Mult>  (6) 
1

$$$$
mol_657 148
     RDKit          3D

 29 30  0  0  0  0  0  0  0  0999 V2000
    3.6873   -0.1932    2.7612 F   0  0  0  0  0  0  0  0  0  0  0  0
    3.7585    0.5533    1.6248 C   0  0  0  0  0  0  0  0  0  0  0  0
    3.4068    1.8185    1.9892 F   0  0  0  0  0  0  0  0  0  0  0  0
    5.0782    0.6138    1.2958 F   0  0  0  0  0  0  0  0  0  0  0  0
    2.8884   -0.0005    0.5241 C   0  0  0  0  0  0  0  0  0  0  0  0
    3.4230   -0.8451   -0.4533 C   0  0  0  0  0  0  0  0  0  0  0  0
    2.6015   -1.3581   -1.4512 C   0  0  0  0  0  0  0  0  0  0  0  0
    1.2392   -1.0394   -1.4780 C   0  0  0  0  0  0  0  0  0  0  0  0
    0.6658   -0.2059   -0.5105 C   0  0  0  0  0  0  0  0  0  0  0  0
    1.5123    0.3034    0.4888 C   0  0  0  0  0  0  0  0  0  0  0  0
   -0.7200    0.1171   -0.5222 N   0  0  0  0  0  0  0  0  0  0  0  0
   -1.3497    0.9083    0.5116 C   0  0  0  0  0  0  0  0  0  0  0  0
   -2.8444    0.6750    0.3213 C   0  0  0  0  0  0  0  0  0  0  0  0
   -3.2874   -0.5752    1.0897 C   0  0  0  0  0  0  0  0  0  0  0  0
   -5.0480   -0.8099    0.9731 Cl  0  0  0  0  0  0  0  0  0  0  0  0
   -2.9592    0.4921   -1.1905 C   0  0  0  0  0  0  0  0  0  0  0  0
   -3.0725    2.0637   -2.0274 Cl  0  0  0  0  0  0  0  0  0  0  0  0
   -1.6305   -0.1443   -1.5664 C   0  0  0  0  0  0  0  0  0  0  0  0
   -1.4434   -0.7439   -2.6148 O   0  0  0  0  0  0  0  0  0  0  0  0
    4.4808   -1.1034   -0.4447 H   0  0  0  0  0  0  0  0  0  0  0  0
    3.0149   -2.0117   -2.2164 H   0  0  0  0  0  0  0  0  0  0  0  0
    0.6491   -1.4787   -2.2770 H   0  0  0  0  0  0  0  0  0  0  0  0
    1.1303    0.9689    1.2594 H   0  0  0  0  0  0  0  0  0  0  0  0
   -1.0884    1.9603    0.3477 H   0  0  0  0  0  0  0  0  0  0  0  0
   -1.0223    0.6018    1.5102 H   0  0  0  0  0  0  0  0  0  0  0  0
   -3.4170    1.5342    0.6910 H   0  0  0  0  0  0  0  0  0  0  0  0
   -3.0512   -0.4786    2.1541 H   0  0  0  0  0  0  0  0  0  0  0  0
   -2.8074   -1.4856    0.7167 H   0  0  0  0  0  0  0  0  0  0  0  0
   -3.7944   -0.1369   -1.5061 H   0  0  0  0  0  0  0  0  0  0  0  0
  1  2  1  0
  2  3  1  0
  2  4  1  0
  2  5  1  0
  5  6  2  0
  6  7  1  0
  7  8  2  0
  8  9  1  0
  9 10  2  0
  9 11  1  0
 11 12  1  0
 12 13  1  0
 13 14  1  0
 14 15  1  0
 13 16  1  0
 16 17  1  0
 16 18  1  0
 18 19  2  0
 10  5  1  0
 18 11  1  0
  6 20  1  0
  7 21  1  0
  8 22  1  0
 10 23  1  0
 12 24  1  0
 12 25  1  0
 13 26  1  0
 14 27  1  0
 14 28  1  0
 16 29  1  0
M  END
>  <Energy>  (7) 
42.45504663525648

>  <Real charge>  (7) 
0

>  <Mult>  (7) 
1

$$$$
mol_657 69
     RDKit          3D

 29 30  0  0  0  0  0  0  0  0999 V2000
    3.8625   -2.6316   -0.0471 F   0  0  0  0  0  0  0  0  0  0  0  0
    3.6807   -1.6149   -0.9338 C   0  0  0  0  0  0  0  0  0  0  0  0
    3.0349   -2.1626   -2.0016 F   0  0  0  0  0  0  0  0  0  0  0  0
    4.9223   -1.2807   -1.3825 F   0  0  0  0  0  0  0  0  0  0  0  0
    2.9300   -0.4553   -0.3279 C   0  0  0  0  0  0  0  0  0  0  0  0
    3.6169    0.6323    0.2198 C   0  0  0  0  0  0  0  0  0  0  0  0
    2.9082    1.6849    0.7887 C   0  0  0  0  0  0  0  0  0  0  0  0
    1.5096    1.6582    0.8227 C   0  0  0  0  0  0  0  0  0  0  0  0
    0.7873    0.5818    0.2940 C   0  0  0  0  0  0  0  0  0  0  0  0
    1.5214   -0.4717   -0.2771 C   0  0  0  0  0  0  0  0  0  0  0  0
   -0.6350    0.5402    0.3275 N   0  0  0  0  0  0  0  0  0  0  0  0
   -1.3953   -0.5933   -0.1554 C   0  0  0  0  0  0  0  0  0  0  0  0
   -2.7899   -0.3827    0.4177 C   0  0  0  0  0  0  0  0  0  0  0  0
   -3.8864   -1.1270   -0.3283 C   0  0  0  0  0  0  0  0  0  0  0  0
   -3.6946   -2.8889   -0.1377 Cl  0  0  0  0  0  0  0  0  0  0  0  0
   -2.9215    1.1385    0.4404 C   0  0  0  0  0  0  0  0  0  0  0  0
   -3.4458    1.8539   -1.1029 Cl  0  0  0  0  0  0  0  0  0  0  0  0
   -1.4947    1.5912    0.7035 C   0  0  0  0  0  0  0  0  0  0  0  0
   -1.2124    2.7000    1.1341 O   0  0  0  0  0  0  0  0  0  0  0  0
    4.7051    0.6661    0.2027 H   0  0  0  0  0  0  0  0  0  0  0  0
    3.4392    2.5348    1.2122 H   0  0  0  0  0  0  0  0  0  0  0  0
    1.0148    2.5057    1.2874 H   0  0  0  0  0  0  0  0  0  0  0  0
    1.0177   -1.3310   -0.7144 H   0  0  0  0  0  0  0  0  0  0  0  0
   -1.3869   -0.5806   -1.2514 H   0  0  0  0  0  0  0  0  0  0  0  0
   -0.9725   -1.5334    0.2130 H   0  0  0  0  0  0  0  0  0  0  0  0
   -2.7800   -0.7201    1.4654 H   0  0  0  0  0  0  0  0  0  0  0  0
   -4.8733   -0.8632    0.0637 H   0  0  0  0  0  0  0  0  0  0  0  0
   -3.8729   -0.9258   -1.4030 H   0  0  0  0  0  0  0  0  0  0  0  0
   -3.5894    1.4753    1.2383 H   0  0  0  0  0  0  0  0  0  0  0  0
  1  2  1  0
  2  3  1  0
  2  4  1  0
  2  5  1  0
  5  6  2  0
  6  7  1  0
  7  8  2  0
  8  9  1  0
  9 10  2  0
  9 11  1  0
 11 12  1  0
 12 13  1  0
 13 14  1  0
 14 15  1  0
 13 16  1  0
 16 17  1  0
 16 18  1  0
 18 19  2  0
 10  5  1  0
 18 11  1  0
  6 20  1  0
  7 21  1  0
  8 22  1  0
 10 23  1  0
 12 24  1  0
 12 25  1  0
 13 26  1  0
 14 27  1  0
 14 28  1  0
 16 29  1  0
M  END
>  <Energy>  (8) 
42.61537500417322

>  <Real charge>  (8) 
0

>  <Mult>  (8) 
1

$$$$
mol_657 96
     RDKit          3D

 29 30  0  0  0  0  0  0  0  0999 V2000
    3.4645    2.4258    0.1791 F   0  0  0  0  0  0  0  0  0  0  0  0
    3.8780    1.2035    0.6178 C   0  0  0  0  0  0  0  0  0  0  0  0
    3.9565    1.3014    1.9732 F   0  0  0  0  0  0  0  0  0  0  0  0
    5.1585    1.0646    0.1756 F   0  0  0  0  0  0  0  0  0  0  0  0
    2.9671    0.0853    0.1761 C   0  0  0  0  0  0  0  0  0  0  0  0
    3.4821   -1.1800   -0.1215 C   0  0  0  0  0  0  0  0  0  0  0  0
    2.6244   -2.2058   -0.5035 C   0  0  0  0  0  0  0  0  0  0  0  0
    1.2459   -1.9798   -0.5864 C   0  0  0  0  0  0  0  0  0  0  0  0
    0.6923   -0.7289   -0.2891 C   0  0  0  0  0  0  0  0  0  0  0  0
    1.5754    0.2943    0.0961 C   0  0  0  0  0  0  0  0  0  0  0  0
   -0.7079   -0.4867   -0.3687 N   0  0  0  0  0  0  0  0  0  0  0  0
   -1.2901    0.8173   -0.1307 C   0  0  0  0  0  0  0  0  0  0  0  0
   -2.7003    0.7082   -0.6940 C   0  0  0  0  0  0  0  0  0  0  0  0
   -3.6736    1.7337   -0.1338 C   0  0  0  0  0  0  0  0  0  0  0  0
   -3.2206    3.3794   -0.6473 Cl  0  0  0  0  0  0  0  0  0  0  0  0
   -3.0579   -0.7533   -0.4332 C   0  0  0  0  0  0  0  0  0  0  0  0
   -3.6839   -1.0763    1.2016 Cl  0  0  0  0  0  0  0  0  0  0  0  0
   -1.7148   -1.4523   -0.5648 C   0  0  0  0  0  0  0  0  0  0  0  0
   -1.6013   -2.6520   -0.7706 O   0  0  0  0  0  0  0  0  0  0  0  0
    4.5521   -1.3719   -0.0572 H   0  0  0  0  0  0  0  0  0  0  0  0
    3.0219   -3.1906   -0.7390 H   0  0  0  0  0  0  0  0  0  0  0  0
    0.6302   -2.8182   -0.8982 H   0  0  0  0  0  0  0  0  0  0  0  0
    1.2047    1.2830    0.3577 H   0  0  0  0  0  0  0  0  0  0  0  0
   -0.7310    1.5974   -0.6574 H   0  0  0  0  0  0  0  0  0  0  0  0
   -1.2844    1.0130    0.9478 H   0  0  0  0  0  0  0  0  0  0  0  0
   -2.6396    0.8344   -1.7858 H   0  0  0  0  0  0  0  0  0  0  0  0
   -4.6887    1.5476   -0.4975 H   0  0  0  0  0  0  0  0  0  0  0  0
   -3.6910    1.7414    0.9595 H   0  0  0  0  0  0  0  0  0  0  0  0
   -3.7684   -1.1345   -1.1722 H   0  0  0  0  0  0  0  0  0  0  0  0
  1  2  1  0
  2  3  1  0
  2  4  1  0
  2  5  1  0
  5  6  2  0
  6  7  1  0
  7  8  2  0
  8  9  1  0
  9 10  2  0
  9 11  1  0
 11 12  1  0
 12 13  1  0
 13 14  1  0
 14 15  1  0
 13 16  1  0
 16 17  1  0
 16 18  1  0
 18 19  2  0
 10  5  1  0
 18 11  1  0
  6 20  1  0
  7 21  1  0
  8 22  1  0
 10 23  1  0
 12 24  1  0
 12 25  1  0
 13 26  1  0
 14 27  1  0
 14 28  1  0
 16 29  1  0
M  END
>  <Energy>  (9) 
42.61855304259457

>  <Real charge>  (9) 
0

>  <Mult>  (9) 
1

$$$$
mol_657 76
     RDKit          3D

 29 30  0  0  0  0  0  0  0  0999 V2000
   -4.5268    1.7656   -0.8070 F   0  0  0  0  0  0  0  0  0  0  0  0
   -4.2757    1.1865    0.3990 C   0  0  0  0  0  0  0  0  0  0  0  0
   -5.4602    0.6461    0.8045 F   0  0  0  0  0  0  0  0  0  0  0  0
   -4.0221    2.2070    1.2639 F   0  0  0  0  0  0  0  0  0  0  0  0
   -3.1536    0.1792    0.3325 C   0  0  0  0  0  0  0  0  0  0  0  0
   -3.4145   -1.1944    0.3743 C   0  0  0  0  0  0  0  0  0  0  0  0
   -2.3650   -2.1040    0.3017 C   0  0  0  0  0  0  0  0  0  0  0  0
   -1.0479   -1.6493    0.1807 C   0  0  0  0  0  0  0  0  0  0  0  0
   -0.7492   -0.2785    0.1259 C   0  0  0  0  0  0  0  0  0  0  0  0
   -1.8215    0.6208    0.2038 C   0  0  0  0  0  0  0  0  0  0  0  0
    0.5972    0.1649   -0.0007 N   0  0  0  0  0  0  0  0  0  0  0  0
    1.7220   -0.7456    0.0170 C   0  0  0  0  0  0  0  0  0  0  0  0
    2.9297    0.1461    0.2654 C   0  0  0  0  0  0  0  0  0  0  0  0
    4.2405   -0.4226   -0.2553 C   0  0  0  0  0  0  0  0  0  0  0  0
    4.6350   -1.9639    0.5415 Cl  0  0  0  0  0  0  0  0  0  0  0  0
    2.5304    1.4309   -0.4499 C   0  0  0  0  0  0  0  0  0  0  0  0
    3.3281    2.8453    0.2512 Cl  0  0  0  0  0  0  0  0  0  0  0  0
    1.0244    1.4809   -0.2719 C   0  0  0  0  0  0  0  0  0  0  0  0
    0.3442    2.4847   -0.4202 O   0  0  0  0  0  0  0  0  0  0  0  0
   -4.4361   -1.5603    0.4658 H   0  0  0  0  0  0  0  0  0  0  0  0
   -2.5688   -3.1719    0.3359 H   0  0  0  0  0  0  0  0  0  0  0  0
   -0.2707   -2.4050    0.1161 H   0  0  0  0  0  0  0  0  0  0  0  0
   -1.6562    1.6958    0.1828 H   0  0  0  0  0  0  0  0  0  0  0  0
    1.7731   -1.2533   -0.9534 H   0  0  0  0  0  0  0  0  0  0  0  0
    1.6205   -1.4804    0.8222 H   0  0  0  0  0  0  0  0  0  0  0  0
    3.0079    0.3279    1.3474 H   0  0  0  0  0  0  0  0  0  0  0  0
    4.1962   -0.6147   -1.3321 H   0  0  0  0  0  0  0  0  0  0  0  0
    5.0707    0.2646   -0.0666 H   0  0  0  0  0  0  0  0  0  0  0  0
    2.7482    1.3978   -1.5234 H   0  0  0  0  0  0  0  0  0  0  0  0
  1  2  1  0
  2  3  1  0
  2  4  1  0
  2  5  1  0
  5  6  2  0
  6  7  1  0
  7  8  2  0
  8  9  1  0
  9 10  2  0
  9 11  1  0
 11 12  1  0
 12 13  1  0
 13 14  1  0
 14 15  1  0
 13 16  1  0
 16 17  1  0
 16 18  1  0
 18 19  2  0
 10  5  1  0
 18 11  1  0
  6 20  1  0
  7 21  1  0
  8 22  1  0
 10 23  1  0
 12 24  1  0
 12 25  1  0
 13 26  1  0
 14 27  1  0
 14 28  1  0
 16 29  1  0
M  END
>  <Energy>  (10) 
43.05778439536908

>  <Real charge>  (10) 
0

>  <Mult>  (10) 
1

$$$$
mol_657 100
     RDKit          3D

 29 30  0  0  0  0  0  0  0  0999 V2000
    4.9105    1.8639    0.6831 F   0  0  0  0  0  0  0  0  0  0  0  0
    3.6953    1.8834    0.0689 C   0  0  0  0  0  0  0  0  0  0  0  0
    3.0277    2.9461    0.6004 F   0  0  0  0  0  0  0  0  0  0  0  0
    3.9356    2.2070   -1.2311 F   0  0  0  0  0  0  0  0  0  0  0  0
    2.9333    0.5887    0.2052 C   0  0  0  0  0  0  0  0  0  0  0  0
    3.6061   -0.6168    0.4263 C   0  0  0  0  0  0  0  0  0  0  0  0
    2.8876   -1.8028    0.5324 C   0  0  0  0  0  0  0  0  0  0  0  0
    1.4934   -1.7971    0.4133 C   0  0  0  0  0  0  0  0  0  0  0  0
    0.7857   -0.6113    0.1838 C   0  0  0  0  0  0  0  0  0  0  0  0
    1.5295    0.5763    0.0776 C   0  0  0  0  0  0  0  0  0  0  0  0
   -0.6318   -0.5936    0.0555 N   0  0  0  0  0  0  0  0  0  0  0  0
   -1.3707    0.6054   -0.2783 C   0  0  0  0  0  0  0  0  0  0  0  0
   -2.7419    0.1017   -0.7042 C   0  0  0  0  0  0  0  0  0  0  0  0
   -3.8605    1.1164   -0.5252 C   0  0  0  0  0  0  0  0  0  0  0  0
   -3.5780    2.5666   -1.5165 Cl  0  0  0  0  0  0  0  0  0  0  0  0
   -2.9222   -1.1227    0.1844 C   0  0  0  0  0  0  0  0  0  0  0  0
   -4.0088   -2.3100   -0.5496 Cl  0  0  0  0  0  0  0  0  0  0  0  0
   -1.5112   -1.6603    0.3355 C   0  0  0  0  0  0  0  0  0  0  0  0
   -1.2408   -2.7929    0.7052 O   0  0  0  0  0  0  0  0  0  0  0  0
    4.6909   -0.6375    0.5180 H   0  0  0  0  0  0  0  0  0  0  0  0
    3.4076   -2.7427    0.7050 H   0  0  0  0  0  0  0  0  0  0  0  0
    0.9910   -2.7569    0.4912 H   0  0  0  0  0  0  0  0  0  0  0  0
    1.0369    1.5311   -0.0925 H   0  0  0  0  0  0  0  0  0  0  0  0
   -0.8924    1.1455   -1.1017 H   0  0  0  0  0  0  0  0  0  0  0  0
   -1.4201    1.2421    0.6128 H   0  0  0  0  0  0  0  0  0  0  0  0
   -2.6847   -0.2054   -1.7588 H   0  0  0  0  0  0  0  0  0  0  0  0
   -3.9434    1.4444    0.5159 H   0  0  0  0  0  0  0  0  0  0  0  0
   -4.8248    0.6970   -0.8272 H   0  0  0  0  0  0  0  0  0  0  0  0
   -3.3000   -0.8657    1.1803 H   0  0  0  0  0  0  0  0  0  0  0  0
  1  2  1  0
  2  3  1  0
  2  4  1  0
  2  5  1  0
  5  6  2  0
  6  7  1  0
  7  8  2  0
  8  9  1  0
  9 10  2  0
  9 11  1  0
 11 12  1  0
 12 13  1  0
 13 14  1  0
 14 15  1  0
 13 16  1  0
 16 17  1  0
 16 18  1  0
 18 19  2  0
 10  5  1  0
 18 11  1  0
  6 20  1  0
  7 21  1  0
  8 22  1  0
 10 23  1  0
 12 24  1  0
 12 25  1  0
 13 26  1  0
 14 27  1  0
 14 28  1  0
 16 29  1  0
M  END
>  <Energy>  (11) 
43.18454401589865

>  <Real charge>  (11) 
0

>  <Mult>  (11) 
1

$$$$
mol_657 178
     RDKit          3D

 29 30  0  0  0  0  0  0  0  0999 V2000
   -3.2123    2.6488    0.8114 F   0  0  0  0  0  0  0  0  0  0  0  0
   -3.7836    1.6969    0.0211 C   0  0  0  0  0  0  0  0  0  0  0  0
   -3.9448    2.2755   -1.2005 F   0  0  0  0  0  0  0  0  0  0  0  0
   -5.0378    1.5067    0.5161 F   0  0  0  0  0  0  0  0  0  0  0  0
   -2.9676    0.4303   -0.0498 C   0  0  0  0  0  0  0  0  0  0  0  0
   -3.5913   -0.8177   -0.1396 C   0  0  0  0  0  0  0  0  0  0  0  0
   -2.8220   -1.9730   -0.2275 C   0  0  0  0  0  0  0  0  0  0  0  0
   -1.4251   -1.8926   -0.2336 C   0  0  0  0  0  0  0  0  0  0  0  0
   -0.7649   -0.6607   -0.1551 C   0  0  0  0  0  0  0  0  0  0  0  0
   -1.5595    0.4950   -0.0654 C   0  0  0  0  0  0  0  0  0  0  0  0
    0.6553   -0.5660   -0.1616 N   0  0  0  0  0  0  0  0  0  0  0  0
    1.3549    0.6882    0.0182 C   0  0  0  0  0  0  0  0  0  0  0  0
    2.7837    0.2833    0.3500 C   0  0  0  0  0  0  0  0  0  0  0  0
    3.8258    1.3335   -0.0022 C   0  0  0  0  0  0  0  0  0  0  0  0
    3.5543    2.8391    0.9060 Cl  0  0  0  0  0  0  0  0  0  0  0  0
    2.9504   -0.9942   -0.4632 C   0  0  0  0  0  0  0  0  0  0  0  0
    4.1601   -2.0705    0.2491 Cl  0  0  0  0  0  0  0  0  0  0  0  0
    1.5627   -1.6078   -0.4456 C   0  0  0  0  0  0  0  0  0  0  0  0
    1.3220   -2.7765   -0.7082 O   0  0  0  0  0  0  0  0  0  0  0  0
   -4.6774   -0.8960   -0.1395 H   0  0  0  0  0  0  0  0  0  0  0  0
   -3.3038   -2.9464   -0.2907 H   0  0  0  0  0  0  0  0  0  0  0  0
   -0.8804   -2.8306   -0.2897 H   0  0  0  0  0  0  0  0  0  0  0  0
   -1.1061    1.4826   -0.0170 H   0  0  0  0  0  0  0  0  0  0  0  0
    0.9228    1.2649    0.8423 H   0  0  0  0  0  0  0  0  0  0  0  0
    1.2909    1.2584   -0.9160 H   0  0  0  0  0  0  0  0  0  0  0  0
    2.8368    0.0536    1.4244 H   0  0  0  0  0  0  0  0  0  0  0  0
    3.7986    1.5859   -1.0671 H   0  0  0  0  0  0  0  0  0  0  0  0
    4.8342    0.9840    0.2385 H   0  0  0  0  0  0  0  0  0  0  0  0
    3.2243   -0.7949   -1.5053 H   0  0  0  0  0  0  0  0  0  0  0  0
  1  2  1  0
  2  3  1  0
  2  4  1  0
  2  5  1  0
  5  6  2  0
  6  7  1  0
  7  8  2  0
  8  9  1  0
  9 10  2  0
  9 11  1  0
 11 12  1  0
 12 13  1  0
 13 14  1  0
 14 15  1  0
 13 16  1  0
 16 17  1  0
 16 18  1  0
 18 19  2  0
 10  5  1  0
 18 11  1  0
  6 20  1  0
  7 21  1  0
  8 22  1  0
 10 23  1  0
 12 24  1  0
 12 25  1  0
 13 26  1  0
 14 27  1  0
 14 28  1  0
 16 29  1  0
M  END
>  <Energy>  (12) 
43.19015183871166

>  <Real charge>  (12) 
0

>  <Mult>  (12) 
1

$$$$
