mol_131 75
     RDKit          3D

 17 17  0  0  0  0  0  0  0  0999 V2000
   -1.3231   -1.4316    0.2322 C   0  0  0  0  0  0  0  0  0  0  0  0
   -0.6345   -0.1080    0.0571 C   0  0  0  0  0  0  0  0  0  0  0  0
   -1.3926    1.0666    0.0031 C   0  0  0  0  0  0  0  0  0  0  0  0
   -0.7412    2.2789   -0.1588 C   0  0  0  0  0  0  0  0  0  0  0  0
    0.5959    2.4026   -0.2694 N   0  0  0  0  0  0  0  0  0  0  0  0
    1.3128    1.2584   -0.2152 C   0  0  0  0  0  0  0  0  0  0  0  0
    0.7625   -0.0126   -0.0553 C   0  0  0  0  0  0  0  0  0  0  0  0
    1.6542   -1.2167   -0.0084 C   0  0  0  0  0  0  0  0  0  0  0  0
   -0.9850   -1.9175    1.1529 H   0  0  0  0  0  0  0  0  0  0  0  0
   -1.1164   -2.0839   -0.6221 H   0  0  0  0  0  0  0  0  0  0  0  0
   -2.4097   -1.3127    0.3015 H   0  0  0  0  0  0  0  0  0  0  0  0
   -2.4743    1.0460    0.0851 H   0  0  0  0  0  0  0  0  0  0  0  0
   -1.2978    3.2103   -0.2049 H   0  0  0  0  0  0  0  0  0  0  0  0
    2.3868    1.3996   -0.3079 H   0  0  0  0  0  0  0  0  0  0  0  0
    1.5425   -1.7363    0.9484 H   0  0  0  0  0  0  0  0  0  0  0  0
    1.4111   -1.9027   -0.8260 H   0  0  0  0  0  0  0  0  0  0  0  0
    2.7089   -0.9403   -0.1124 H   0  0  0  0  0  0  0  0  0  0  0  0
  1  2  1  0
  2  3  2  0
  3  4  1  0
  4  5  2  0
  5  6  1  0
  6  7  2  0
  7  8  1  0
  7  2  1  0
  1  9  1  0
  1 10  1  0
  1 11  1  0
  3 12  1  0
  4 13  1  0
  6 14  1  0
  8 15  1  0
  8 16  1  0
  8 17  1  0
M  END
>  <Energy>  (1) 
21.091614150957056

>  <Real charge>  (1) 
0

>  <Mult>  (1) 
1

$$$$
