mol_626 66
     RDKit          3D

 34 36  0  0  0  0  0  0  0  0999 V2000
    3.0384   -0.5970   -1.5765 C   0  0  0  0  0  0  0  0  0  0  0  0
    2.2430   -1.1019   -0.3742 C   0  0  0  0  0  0  0  0  0  0  0  0
    0.9406   -0.4217   -0.2710 N   0  0  0  0  0  0  0  0  0  0  0  0
   -0.1123   -1.1291    0.3698 C   0  0  0  0  0  0  0  0  0  0  0  0
    0.1519   -2.1436    1.3161 C   0  0  0  0  0  0  0  0  0  0  0  0
   -0.8749   -2.8186    1.9773 C   0  0  0  0  0  0  0  0  0  0  0  0
   -2.1947   -2.4888    1.7147 C   0  0  0  0  0  0  0  0  0  0  0  0
   -2.4846   -1.4884    0.7874 C   0  0  0  0  0  0  0  0  0  0  0  0
   -1.4643   -0.7942    0.1036 C   0  0  0  0  0  0  0  0  0  0  0  0
   -1.8324    0.1718   -0.9050 N   0  0  0  0  0  0  0  0  0  0  0  0
   -3.0483   -0.1511   -1.6753 C   0  0  0  0  0  0  0  0  0  0  0  0
   -1.1069    1.3601   -1.1734 C   0  0  0  0  0  0  0  0  0  0  0  0
   -1.4443    2.3755   -2.5049 S   0  0  0  0  0  0  0  0  0  0  0  0
   -0.0295    1.7976   -0.2300 C   0  0  0  0  0  0  0  0  0  0  0  0
   -0.0051    3.1124    0.2628 C   0  0  0  0  0  0  0  0  0  0  0  0
    1.0809    3.5507    1.0099 C   0  0  0  0  0  0  0  0  0  0  0  0
    2.1137    2.6617    1.2293 C   0  0  0  0  0  0  0  0  0  0  0  0
    2.1137    1.3867    0.7845 N   0  0  0  0  0  0  0  0  0  0  0  0
    1.0360    0.9485    0.0755 C   0  0  0  0  0  0  0  0  0  0  0  0
    3.3293    0.4521   -1.4681 H   0  0  0  0  0  0  0  0  0  0  0  0
    3.9541   -1.1852   -1.6944 H   0  0  0  0  0  0  0  0  0  0  0  0
    2.4528   -0.6892   -2.4975 H   0  0  0  0  0  0  0  0  0  0  0  0
    2.0876   -2.1743   -0.5535 H   0  0  0  0  0  0  0  0  0  0  0  0
    2.8358   -1.0150    0.5454 H   0  0  0  0  0  0  0  0  0  0  0  0
    1.1727   -2.4046    1.5816 H   0  0  0  0  0  0  0  0  0  0  0  0
   -0.6376   -3.5890    2.7063 H   0  0  0  0  0  0  0  0  0  0  0  0
   -3.0004   -3.0012    2.2337 H   0  0  0  0  0  0  0  0  0  0  0  0
   -3.5304   -1.2396    0.6272 H   0  0  0  0  0  0  0  0  0  0  0  0
   -3.8910    0.3994   -1.2455 H   0  0  0  0  0  0  0  0  0  0  0  0
   -3.2549   -1.2263   -1.6685 H   0  0  0  0  0  0  0  0  0  0  0  0
   -2.9410    0.1230   -2.7274 H   0  0  0  0  0  0  0  0  0  0  0  0
   -0.8195    3.8012    0.0543 H   0  0  0  0  0  0  0  0  0  0  0  0
    1.1264    4.5638    1.3930 H   0  0  0  0  0  0  0  0  0  0  0  0
    2.9951    2.9545    1.7928 H   0  0  0  0  0  0  0  0  0  0  0  0
  1  2  1  0
  2  3  1  0
  3  4  1  0
  4  5  2  0
  5  6  1  0
  6  7  2  0
  7  8  1  0
  8  9  2  0
  9 10  1  0
 10 11  1  0
 10 12  1  0
 12 13  2  0
 12 14  1  0
 14 15  2  0
 15 16  1  0
 16 17  2  0
 17 18  1  0
 18 19  2  0
  9  4  1  0
 19  3  1  0
 19 14  1  0
  1 20  1  0
  1 21  1  0
  1 22  1  0
  2 23  1  0
  2 24  1  0
  5 25  1  0
  6 26  1  0
  7 27  1  0
  8 28  1  0
 11 29  1  0
 11 30  1  0
 11 31  1  0
 15 32  1  0
 16 33  1  0
 17 34  1  0
M  END
>  <Energy>  (1) 
85.37684849423955

>  <Real charge>  (1) 
0

>  <Mult>  (1) 
1

$$$$
mol_626 40
     RDKit          3D

 34 36  0  0  0  0  0  0  0  0999 V2000
    2.9121   -0.5377   -1.6437 C   0  0  0  0  0  0  0  0  0  0  0  0
    2.4055    0.5124   -0.6585 C   0  0  0  0  0  0  0  0  0  0  0  0
    0.9662    0.3460   -0.3929 N   0  0  0  0  0  0  0  0  0  0  0  0
    0.5084   -0.8153    0.2797 C   0  0  0  0  0  0  0  0  0  0  0  0
    1.3500   -1.5569    1.1364 C   0  0  0  0  0  0  0  0  0  0  0  0
    0.8937   -2.6793    1.8296 C   0  0  0  0  0  0  0  0  0  0  0  0
   -0.4232   -3.0852    1.6906 C   0  0  0  0  0  0  0  0  0  0  0  0
   -1.2788   -2.3711    0.8534 C   0  0  0  0  0  0  0  0  0  0  0  0
   -0.8393   -1.2359    0.1399 C   0  0  0  0  0  0  0  0  0  0  0  0
   -1.7538   -0.5922   -0.7736 N   0  0  0  0  0  0  0  0  0  0  0  0
   -2.6848   -1.4950   -1.4765 C   0  0  0  0  0  0  0  0  0  0  0  0
   -1.7923    0.8048   -1.0107 C   0  0  0  0  0  0  0  0  0  0  0  0
   -2.7510    1.5139   -2.2339 S   0  0  0  0  0  0  0  0  0  0  0  0
   -1.0102    1.7269   -0.1273 C   0  0  0  0  0  0  0  0  0  0  0  0
   -1.6224    2.8510    0.4502 C   0  0  0  0  0  0  0  0  0  0  0  0
   -0.8524    3.7830    1.1346 C   0  0  0  0  0  0  0  0  0  0  0  0
    0.5090    3.5666    1.2079 C   0  0  0  0  0  0  0  0  0  0  0  0
    1.1271    2.4889    0.6787 N   0  0  0  0  0  0  0  0  0  0  0  0
    0.3668    1.5600    0.0329 C   0  0  0  0  0  0  0  0  0  0  0  0
    2.3218   -0.5227   -2.5663 H   0  0  0  0  0  0  0  0  0  0  0  0
    3.9558   -0.3347   -1.9045 H   0  0  0  0  0  0  0  0  0  0  0  0
    2.8641   -1.5500   -1.2328 H   0  0  0  0  0  0  0  0  0  0  0  0
    2.5850    1.4814   -1.1461 H   0  0  0  0  0  0  0  0  0  0  0  0
    3.0057    0.5123    0.2592 H   0  0  0  0  0  0  0  0  0  0  0  0
    2.3800   -1.2574    1.3041 H   0  0  0  0  0  0  0  0  0  0  0  0
    1.5678   -3.2230    2.4864 H   0  0  0  0  0  0  0  0  0  0  0  0
   -0.7899   -3.9510    2.2355 H   0  0  0  0  0  0  0  0  0  0  0  0
   -2.3118   -2.7031    0.7885 H   0  0  0  0  0  0  0  0  0  0  0  0
   -3.6492   -1.4753   -0.9594 H   0  0  0  0  0  0  0  0  0  0  0  0
   -2.2984   -2.5187   -1.5188 H   0  0  0  0  0  0  0  0  0  0  0  0
   -2.8287   -1.1896   -2.5157 H   0  0  0  0  0  0  0  0  0  0  0  0
   -2.6930    3.0129    0.3560 H   0  0  0  0  0  0  0  0  0  0  0  0
   -1.3017    4.6630    1.5808 H   0  0  0  0  0  0  0  0  0  0  0  0
    1.1618    4.2707    1.7162 H   0  0  0  0  0  0  0  0  0  0  0  0
  1  2  1  0
  2  3  1  0
  3  4  1  0
  4  5  2  0
  5  6  1  0
  6  7  2  0
  7  8  1  0
  8  9  2  0
  9 10  1  0
 10 11  1  0
 10 12  1  0
 12 13  2  0
 12 14  1  0
 14 15  2  0
 15 16  1  0
 16 17  2  0
 17 18  1  0
 18 19  2  0
  9  4  1  0
 19  3  1  0
 19 14  1  0
  1 20  1  0
  1 21  1  0
  1 22  1  0
  2 23  1  0
  2 24  1  0
  5 25  1  0
  6 26  1  0
  7 27  1  0
  8 28  1  0
 11 29  1  0
 11 30  1  0
 11 31  1  0
 15 32  1  0
 16 33  1  0
 17 34  1  0
M  END
>  <Energy>  (2) 
85.72568727326367

>  <Real charge>  (2) 
0

>  <Mult>  (2) 
1

$$$$
