mol_973 100
     RDKit          3D

 11 10  0  0  0  0  0  0  0  0999 V2000
    1.2633   -0.0763    0.2762 C   0  0  0  0  0  0  0  0  0  0  0  0
   -0.0047    0.3166   -0.4781 C   0  0  0  0  0  0  0  0  0  0  0  0
   -1.2249   -0.4143    0.0770 C   0  0  0  0  0  0  0  0  0  0  0  0
   -0.3032    2.4330   -0.3408 I   0  0  0  0  0  0  0  0  0  0  0  0
    1.4406   -1.1692    0.1860 H   0  0  0  0  0  0  0  0  0  0  0  0
    2.1368    0.4573   -0.1541 H   0  0  0  0  0  0  0  0  0  0  0  0
    1.1743    0.1898    1.3511 H   0  0  0  0  0  0  0  0  0  0  0  0
    0.1167    0.0557   -1.5516 H   0  0  0  0  0  0  0  0  0  0  0  0
   -2.1303   -0.1224   -0.4957 H   0  0  0  0  0  0  0  0  0  0  0  0
   -1.3788   -0.1571    1.1467 H   0  0  0  0  0  0  0  0  0  0  0  0
   -1.0898   -1.5130   -0.0166 H   0  0  0  0  0  0  0  0  0  0  0  0
  1  2  1  0
  2  3  1  0
  2  4  1  0
  1  5  1  0
  1  6  1  0
  1  7  1  0
  2  8  1  0
  3  9  1  0
  3 10  1  0
  3 11  1  0
M  END
>  <Energy>  (1) 
1.0141054631162472

>  <Real charge>  (1) 
0

>  <Mult>  (1) 
1

$$$$
