mol_368 39
     RDKit          3D

 14 13  0  0  0  0  0  0  0  0999 V2000
   -2.1513    0.4662    0.6166 C   0  0  0  0  0  0  0  0  0  0  0  0
   -1.0984    0.2255   -0.4510 C   0  0  0  0  0  0  0  0  0  0  0  0
    0.2605   -0.0529    0.1455 C   0  0  0  0  0  0  0  0  0  0  0  0
    0.5195   -0.0883    1.3398 O   0  0  0  0  0  0  0  0  0  0  0  0
    1.1605   -0.2600   -0.8581 O   0  0  0  0  0  0  0  0  0  0  0  0
    2.4857   -0.5336   -0.4011 C   0  0  0  0  0  0  0  0  0  0  0  0
   -2.2544   -0.4059    1.2709 H   0  0  0  0  0  0  0  0  0  0  0  0
   -1.8874    1.3250    1.2427 H   0  0  0  0  0  0  0  0  0  0  0  0
   -3.1236    0.6648    0.1553 H   0  0  0  0  0  0  0  0  0  0  0  0
   -1.3916   -0.6345   -1.0621 H   0  0  0  0  0  0  0  0  0  0  0  0
   -1.0215    1.1111   -1.0905 H   0  0  0  0  0  0  0  0  0  0  0  0
    3.1222   -0.6828   -1.2777 H   0  0  0  0  0  0  0  0  0  0  0  0
    2.5030   -1.4486    0.1992 H   0  0  0  0  0  0  0  0  0  0  0  0
    2.8767    0.3139    0.1705 H   0  0  0  0  0  0  0  0  0  0  0  0
  1  2  1  0
  2  3  1  0
  3  4  2  0
  3  5  1  0
  5  6  1  0
  1  7  1  0
  1  8  1  0
  1  9  1  0
  2 10  1  0
  2 11  1  0
  6 12  1  0
  6 13  1  0
  6 14  1  0
M  END
>  <Energy>  (1) 
-10.179374450901769

>  <Real charge>  (1) 
0

>  <Mult>  (1) 
1

$$$$
mol_368 79
     RDKit          3D

 14 13  0  0  0  0  0  0  0  0999 V2000
   -1.9729   -0.4355   -0.1850 C   0  0  0  0  0  0  0  0  0  0  0  0
   -1.1417    0.5348    0.6296 C   0  0  0  0  0  0  0  0  0  0  0  0
    0.2940    0.0865    0.6982 C   0  0  0  0  0  0  0  0  0  0  0  0
    0.7824   -0.5125    1.6465 O   0  0  0  0  0  0  0  0  0  0  0  0
    0.9530    0.4269   -0.4437 O   0  0  0  0  0  0  0  0  0  0  0  0
    2.3227    0.0236   -0.4639 C   0  0  0  0  0  0  0  0  0  0  0  0
   -3.0200   -0.1186   -0.2051 H   0  0  0  0  0  0  0  0  0  0  0  0
   -1.9267   -1.4438    0.2396 H   0  0  0  0  0  0  0  0  0  0  0  0
   -1.6128   -0.4935   -1.2175 H   0  0  0  0  0  0  0  0  0  0  0  0
   -1.1849    1.5449    0.2079 H   0  0  0  0  0  0  0  0  0  0  0  0
   -1.5283    0.6039    1.6524 H   0  0  0  0  0  0  0  0  0  0  0  0
    2.4026   -1.0659   -0.3972 H   0  0  0  0  0  0  0  0  0  0  0  0
    2.8763    0.5044    0.3488 H   0  0  0  0  0  0  0  0  0  0  0  0
    2.7563    0.3447   -1.4151 H   0  0  0  0  0  0  0  0  0  0  0  0
  1  2  1  0
  2  3  1  0
  3  4  2  0
  3  5  1  0
  5  6  1  0
  1  7  1  0
  1  8  1  0
  1  9  1  0
  2 10  1  0
  2 11  1  0
  6 12  1  0
  6 13  1  0
  6 14  1  0
M  END
>  <Energy>  (2) 
-9.46808956815028

>  <Real charge>  (2) 
0

>  <Mult>  (2) 
1

$$$$
