mol_428 74
     RDKit          3D

 10 10  0  0  0  0  0  0  0  0999 V2000
   -1.1763   -0.6510   -0.0557 C   0  0  0  0  0  0  0  0  0  0  0  0
    0.2739   -1.7374    0.0507 S   0  0  0  0  0  0  0  0  0  0  0  0
    1.3969   -0.4061    0.0897 C   0  0  0  0  0  0  0  0  0  0  0  0
    3.0450   -0.5189    0.1881 S   0  0  0  0  0  0  0  0  0  0  0  0
    0.7307    0.7743    0.0272 N   0  0  0  0  0  0  0  0  0  0  0  0
   -0.6321    0.7541   -0.0520 C   0  0  0  0  0  0  0  0  0  0  0  0
   -1.3174    1.7660   -0.1122 O   0  0  0  0  0  0  0  0  0  0  0  0
   -1.8239   -0.8004    0.8113 H   0  0  0  0  0  0  0  0  0  0  0  0
   -1.7190   -0.8363   -0.9854 H   0  0  0  0  0  0  0  0  0  0  0  0
    1.2222    1.6558    0.0383 H   0  0  0  0  0  0  0  0  0  0  0  0
  1  2  1  0
  2  3  1  0
  3  4  2  0
  3  5  1  0
  5  6  1  0
  6  7  2  0
  6  1  1  0
  1  8  1  0
  1  9  1  0
  5 10  1  0
M  END
>  <Energy>  (1) 
-46.476112565969004

>  <Real charge>  (1) 
0

>  <Mult>  (1) 
1

$$$$
