mol_1013 2
     RDKit          3D

  8  7  0  0  0  0  0  0  0  0999 V2000
    2.1710    0.7810    0.1477 Br  0  0  0  0  0  0  0  0  0  0  0  0
    0.6325   -0.4087    0.0501 C   0  0  0  0  0  0  0  0  0  0  0  0
   -0.6325    0.4087   -0.0501 C   0  0  0  0  0  0  0  0  0  0  0  0
   -2.1710   -0.7810   -0.1477 Br  0  0  0  0  0  0  0  0  0  0  0  0
    0.6583   -1.0271    0.9521 H   0  0  0  0  0  0  0  0  0  0  0  0
    0.7863   -1.0468   -0.8250 H   0  0  0  0  0  0  0  0  0  0  0  0
   -0.7863    1.0468    0.8250 H   0  0  0  0  0  0  0  0  0  0  0  0
   -0.6583    1.0271   -0.9521 H   0  0  0  0  0  0  0  0  0  0  0  0
  1  2  1  0
  2  3  1  0
  3  4  1  0
  2  5  1  0
  2  6  1  0
  3  7  1  0
  3  8  1  0
M  END
>  <Energy>  (1) 
3.4950234528681117

>  <Real charge>  (1) 
0

>  <Mult>  (1) 
1

$$$$
mol_1013 35
     RDKit          3D

  8  7  0  0  0  0  0  0  0  0999 V2000
   -1.4509    1.4942   -0.8230 Br  0  0  0  0  0  0  0  0  0  0  0  0
   -0.7592   -0.0650    0.1231 C   0  0  0  0  0  0  0  0  0  0  0  0
    0.7181   -0.2488   -0.1350 C   0  0  0  0  0  0  0  0  0  0  0  0
    1.7783    1.0052    0.9178 Br  0  0  0  0  0  0  0  0  0  0  0  0
   -1.3281   -0.9117   -0.2713 H   0  0  0  0  0  0  0  0  0  0  0  0
   -1.0026    0.0695    1.1806 H   0  0  0  0  0  0  0  0  0  0  0  0
    0.9982   -0.1031   -1.1819 H   0  0  0  0  0  0  0  0  0  0  0  0
    1.0462   -1.2403    0.1897 H   0  0  0  0  0  0  0  0  0  0  0  0
  1  2  1  0
  2  3  1  0
  3  4  1  0
  2  5  1  0
  2  6  1  0
  3  7  1  0
  3  8  1  0
M  END
>  <Energy>  (2) 
4.266749199808151

>  <Real charge>  (2) 
0

>  <Mult>  (2) 
1

$$$$
