mol_944 34
     RDKit          3D

 16 17  0  0  0  0  0  0  0  0999 V2000
   -2.0717    0.7799    0.0432 C   0  0  0  0  0  0  0  0  0  0  0  0
   -2.1124   -0.6074    0.1670 C   0  0  0  0  0  0  0  0  0  0  0  0
   -0.9377   -1.3662    0.1703 C   0  0  0  0  0  0  0  0  0  0  0  0
    0.2761   -0.6802    0.0447 C   0  0  0  0  0  0  0  0  0  0  0  0
    1.5680   -1.1553    0.0168 N   0  0  0  0  0  0  0  0  0  0  0  0
    2.4518   -0.1177   -0.1218 C   0  0  0  0  0  0  0  0  0  0  0  0
    1.7241    1.0488   -0.1848 C   0  0  0  0  0  0  0  0  0  0  0  0
    0.3472    0.7076   -0.0807 C   0  0  0  0  0  0  0  0  0  0  0  0
   -0.8491    1.4502   -0.0814 C   0  0  0  0  0  0  0  0  0  0  0  0
   -2.9975    1.3498    0.0432 H   0  0  0  0  0  0  0  0  0  0  0  0
   -3.0726   -1.1092    0.2627 H   0  0  0  0  0  0  0  0  0  0  0  0
   -0.9734   -2.4461    0.2668 H   0  0  0  0  0  0  0  0  0  0  0  0
    1.8203   -2.1310    0.0887 H   0  0  0  0  0  0  0  0  0  0  0  0
    3.5173   -0.2983   -0.1633 H   0  0  0  0  0  0  0  0  0  0  0  0
    2.1349    2.0436   -0.2941 H   0  0  0  0  0  0  0  0  0  0  0  0
   -0.8254    2.5314   -0.1774 H   0  0  0  0  0  0  0  0  0  0  0  0
  1  2  2  0
  2  3  1  0
  3  4  2  0
  4  5  1  0
  5  6  1  0
  6  7  2  0
  7  8  1  0
  8  9  2  0
  8  4  1  0
  9  1  1  0
  1 10  1  0
  2 11  1  0
  3 12  1  0
  5 13  1  0
  6 14  1  0
  7 15  1  0
  9 16  1  0
M  END
>  <Energy>  (1) 
15.111870111052518

>  <Real charge>  (1) 
0

>  <Mult>  (1) 
1

$$$$
