mol_839 276
     RDKit          3D

 28 28  0  0  0  0  0  0  0  0999 V2000
   -2.0272   -1.4569   -1.2016 C   0  0  0  0  0  0  0  0  0  0  0  0
   -1.2372   -1.2537    0.0954 C   0  0  0  0  0  0  0  0  0  0  0  0
   -2.0922   -1.5583    1.3282 C   0  0  0  0  0  0  0  0  0  0  0  0
   -0.6030    0.0881    0.1695 N   0  0  0  0  0  0  0  0  0  0  0  0
   -1.4047    1.2369    0.2297 C   0  0  0  0  0  0  0  0  0  0  0  0
   -2.6325    1.1924    0.0981 O   0  0  0  0  0  0  0  0  0  0  0  0
   -0.7456    2.5628    0.5901 C   0  0  0  0  0  0  0  0  0  0  0  0
   -0.9085    3.7049   -0.7595 Cl  0  0  0  0  0  0  0  0  0  0  0  0
    0.8068    0.1259   -0.0440 C   0  0  0  0  0  0  0  0  0  0  0  0
    1.3622    0.9254   -1.0498 C   0  0  0  0  0  0  0  0  0  0  0  0
    2.7436    0.9466   -1.2564 C   0  0  0  0  0  0  0  0  0  0  0  0
    3.5804    0.1621   -0.4660 C   0  0  0  0  0  0  0  0  0  0  0  0
    3.0367   -0.6513    0.5256 C   0  0  0  0  0  0  0  0  0  0  0  0
    1.6553   -0.6746    0.7315 C   0  0  0  0  0  0  0  0  0  0  0  0
   -1.4070   -1.2228   -2.0735 H   0  0  0  0  0  0  0  0  0  0  0  0
   -2.9221   -0.8304   -1.2503 H   0  0  0  0  0  0  0  0  0  0  0  0
   -2.3532   -2.4989   -1.2901 H   0  0  0  0  0  0  0  0  0  0  0  0
   -0.4446   -2.0122    0.0789 H   0  0  0  0  0  0  0  0  0  0  0  0
   -2.9787   -0.9204    1.3889 H   0  0  0  0  0  0  0  0  0  0  0  0
   -1.5124   -1.4121    2.2459 H   0  0  0  0  0  0  0  0  0  0  0  0
   -2.4361   -2.5980    1.3084 H   0  0  0  0  0  0  0  0  0  0  0  0
   -1.2770    2.9795    1.4520 H   0  0  0  0  0  0  0  0  0  0  0  0
    0.3043    2.4808    0.8724 H   0  0  0  0  0  0  0  0  0  0  0  0
    0.7302    1.5079   -1.7148 H   0  0  0  0  0  0  0  0  0  0  0  0
    3.1639    1.5677   -2.0439 H   0  0  0  0  0  0  0  0  0  0  0  0
    4.6552    0.1783   -0.6289 H   0  0  0  0  0  0  0  0  0  0  0  0
    3.6882   -1.2670    1.1408 H   0  0  0  0  0  0  0  0  0  0  0  0
    1.2552   -1.3027    1.5235 H   0  0  0  0  0  0  0  0  0  0  0  0
  1  2  1  0
  2  3  1  0
  2  4  1  0
  4  5  1  0
  5  6  2  0
  5  7  1  0
  7  8  1  0
  4  9  1  0
  9 10  2  0
 10 11  1  0
 11 12  2  0
 12 13  1  0
 13 14  2  0
 14  9  1  0
  1 15  1  0
  1 16  1  0
  1 17  1  0
  2 18  1  0
  3 19  1  0
  3 20  1  0
  3 21  1  0
  7 22  1  0
  7 23  1  0
 10 24  1  0
 11 25  1  0
 12 26  1  0
 13 27  1  0
 14 28  1  0
M  END
>  <Energy>  (1) 
49.409884153548845

>  <Real charge>  (1) 
0

>  <Mult>  (1) 
1

$$$$
mol_839 271
     RDKit          3D

 28 28  0  0  0  0  0  0  0  0999 V2000
   -1.8745   -1.5281   -1.3411 C   0  0  0  0  0  0  0  0  0  0  0  0
   -1.3713   -1.1103    0.0444 C   0  0  0  0  0  0  0  0  0  0  0  0
   -2.5110   -1.0642    1.0656 C   0  0  0  0  0  0  0  0  0  0  0  0
   -0.5995    0.1585    0.0102 N   0  0  0  0  0  0  0  0  0  0  0  0
   -1.2472    1.3595   -0.3263 C   0  0  0  0  0  0  0  0  0  0  0  0
   -2.3914    1.3836   -0.7868 O   0  0  0  0  0  0  0  0  0  0  0  0
   -0.4922    2.6563   -0.0394 C   0  0  0  0  0  0  0  0  0  0  0  0
   -1.5997    3.8697    0.6524 Cl  0  0  0  0  0  0  0  0  0  0  0  0
    0.8225    0.0403    0.0797 C   0  0  0  0  0  0  0  0  0  0  0  0
    1.4196   -0.7003    1.1076 C   0  0  0  0  0  0  0  0  0  0  0  0
    2.8093   -0.8224    1.1803 C   0  0  0  0  0  0  0  0  0  0  0  0
    3.6146   -0.2149    0.2198 C   0  0  0  0  0  0  0  0  0  0  0  0
    3.0318    0.5109   -0.8164 C   0  0  0  0  0  0  0  0  0  0  0  0
    1.6422    0.6364   -0.8882 C   0  0  0  0  0  0  0  0  0  0  0  0
   -2.3064   -2.5341   -1.3022 H   0  0  0  0  0  0  0  0  0  0  0  0
   -2.6469   -0.8572   -1.7270 H   0  0  0  0  0  0  0  0  0  0  0  0
   -1.0520   -1.5426   -2.0642 H   0  0  0  0  0  0  0  0  0  0  0  0
   -0.7040   -1.9168    0.3710 H   0  0  0  0  0  0  0  0  0  0  0  0
   -3.2952   -0.3557    0.7833 H   0  0  0  0  0  0  0  0  0  0  0  0
   -2.9780   -2.0501    1.1636 H   0  0  0  0  0  0  0  0  0  0  0  0
   -2.1342   -0.7698    2.0511 H   0  0  0  0  0  0  0  0  0  0  0  0
   -0.0861    3.0589   -0.9702 H   0  0  0  0  0  0  0  0  0  0  0  0
    0.3016    2.5226    0.6969 H   0  0  0  0  0  0  0  0  0  0  0  0
    0.8150   -1.1623    1.8841 H   0  0  0  0  0  0  0  0  0  0  0  0
    3.2628   -1.3892    1.9898 H   0  0  0  0  0  0  0  0  0  0  0  0
    4.6961   -0.3132    0.2750 H   0  0  0  0  0  0  0  0  0  0  0  0
    3.6592    0.9692   -1.5772 H   0  0  0  0  0  0  0  0  0  0  0  0
    1.2149    1.1655   -1.7361 H   0  0  0  0  0  0  0  0  0  0  0  0
  1  2  1  0
  2  3  1  0
  2  4  1  0
  4  5  1  0
  5  6  2  0
  5  7  1  0
  7  8  1  0
  4  9  1  0
  9 10  2  0
 10 11  1  0
 11 12  2  0
 12 13  1  0
 13 14  2  0
 14  9  1  0
  1 15  1  0
  1 16  1  0
  1 17  1  0
  2 18  1  0
  3 19  1  0
  3 20  1  0
  3 21  1  0
  7 22  1  0
  7 23  1  0
 10 24  1  0
 11 25  1  0
 12 26  1  0
 13 27  1  0
 14 28  1  0
M  END
>  <Energy>  (2) 
49.49231514236826

>  <Real charge>  (2) 
0

>  <Mult>  (2) 
1

$$$$
mol_839 196
     RDKit          3D

 28 28  0  0  0  0  0  0  0  0999 V2000
   -2.1030   -1.4339    1.0416 C   0  0  0  0  0  0  0  0  0  0  0  0
   -1.3445   -1.1191   -0.2514 C   0  0  0  0  0  0  0  0  0  0  0  0
   -2.2661   -1.1829   -1.4720 C   0  0  0  0  0  0  0  0  0  0  0  0
   -0.6057    0.1652   -0.1755 N   0  0  0  0  0  0  0  0  0  0  0  0
   -1.3040    1.3743   -0.0708 C   0  0  0  0  0  0  0  0  0  0  0  0
   -2.5170    1.4224    0.1600 O   0  0  0  0  0  0  0  0  0  0  0  0
   -0.5575    2.6742   -0.3392 C   0  0  0  0  0  0  0  0  0  0  0  0
   -0.1882    2.7957   -2.0739 Cl  0  0  0  0  0  0  0  0  0  0  0  0
    0.8103    0.0711   -0.0558 C   0  0  0  0  0  0  0  0  0  0  0  0
    1.5497   -0.6473   -1.0026 C   0  0  0  0  0  0  0  0  0  0  0  0
    2.9359   -0.7611   -0.8788 C   0  0  0  0  0  0  0  0  0  0  0  0
    3.5907   -0.1720    0.2009 C   0  0  0  0  0  0  0  0  0  0  0  0
    2.8603    0.5265    1.1603 C   0  0  0  0  0  0  0  0  0  0  0  0
    1.4742    0.6442    1.0353 C   0  0  0  0  0  0  0  0  0  0  0  0
   -2.5121   -2.4495    1.0062 H   0  0  0  0  0  0  0  0  0  0  0  0
   -1.4356   -1.3696    1.9077 H   0  0  0  0  0  0  0  0  0  0  0  0
   -2.9398   -0.7512    1.2133 H   0  0  0  0  0  0  0  0  0  0  0  0
   -0.6160   -1.9308   -0.3729 H   0  0  0  0  0  0  0  0  0  0  0  0
   -2.6988   -2.1839   -1.5740 H   0  0  0  0  0  0  0  0  0  0  0  0
   -3.0944   -0.4714   -1.4051 H   0  0  0  0  0  0  0  0  0  0  0  0
   -1.7092   -0.9609   -2.3887 H   0  0  0  0  0  0  0  0  0  0  0  0
   -1.2101    3.5144   -0.0811 H   0  0  0  0  0  0  0  0  0  0  0  0
    0.3579    2.7864    0.2381 H   0  0  0  0  0  0  0  0  0  0  0  0
    1.0593   -1.0964   -1.8626 H   0  0  0  0  0  0  0  0  0  0  0  0
    3.5044   -1.3065   -1.6279 H   0  0  0  0  0  0  0  0  0  0  0  0
    4.6699   -0.2627    0.2975 H   0  0  0  0  0  0  0  0  0  0  0  0
    3.3693    0.9706    2.0122 H   0  0  0  0  0  0  0  0  0  0  0  0
    0.9201    1.1539    1.8194 H   0  0  0  0  0  0  0  0  0  0  0  0
  1  2  1  0
  2  3  1  0
  2  4  1  0
  4  5  1  0
  5  6  2  0
  5  7  1  0
  7  8  1  0
  4  9  1  0
  9 10  2  0
 10 11  1  0
 11 12  2  0
 12 13  1  0
 13 14  2  0
 14  9  1  0
  1 15  1  0
  1 16  1  0
  1 17  1  0
  2 18  1  0
  3 19  1  0
  3 20  1  0
  3 21  1  0
  7 22  1  0
  7 23  1  0
 10 24  1  0
 11 25  1  0
 12 26  1  0
 13 27  1  0
 14 28  1  0
M  END
>  <Energy>  (3) 
50.33929279805858

>  <Real charge>  (3) 
0

>  <Mult>  (3) 
1

$$$$
