mol_636 309
     RDKit          3D

 26 25  0  0  0  0  0  0  0  0999 V2000
   -4.7564   -0.2424    0.4674 C   0  0  0  0  0  0  0  0  0  0  0  0
   -3.4070   -0.8902    0.2009 C   0  0  0  0  0  0  0  0  0  0  0  0
   -2.2696    0.1264    0.2937 C   0  0  0  0  0  0  0  0  0  0  0  0
   -0.9163   -0.5283    0.0255 C   0  0  0  0  0  0  0  0  0  0  0  0
    0.2247    0.4792    0.1160 C   0  0  0  0  0  0  0  0  0  0  0  0
    1.4517   -0.2145   -0.1475 O   0  0  0  0  0  0  0  0  0  0  0  0
    2.5623    0.5753   -0.0981 C   0  0  0  0  0  0  0  0  0  0  0  0
    2.5622    1.7733    0.1452 O   0  0  0  0  0  0  0  0  0  0  0  0
    3.7843   -0.2620   -0.3903 C   0  0  0  0  0  0  0  0  0  0  0  0
    5.0610    0.5594   -0.3511 C   0  0  0  0  0  0  0  0  0  0  0  0
   -4.7898    0.1966    1.4696 H   0  0  0  0  0  0  0  0  0  0  0  0
   -4.9628    0.5481   -0.2613 H   0  0  0  0  0  0  0  0  0  0  0  0
   -5.5552   -0.9872    0.3959 H   0  0  0  0  0  0  0  0  0  0  0  0
   -3.2460   -1.6966    0.9259 H   0  0  0  0  0  0  0  0  0  0  0  0
   -3.4180   -1.3470   -0.7955 H   0  0  0  0  0  0  0  0  0  0  0  0
   -2.4376    0.9329   -0.4305 H   0  0  0  0  0  0  0  0  0  0  0  0
   -2.2655    0.5833    1.2908 H   0  0  0  0  0  0  0  0  0  0  0  0
   -0.7392   -1.3417    0.7402 H   0  0  0  0  0  0  0  0  0  0  0  0
   -0.9100   -0.9949   -0.9676 H   0  0  0  0  0  0  0  0  0  0  0  0
    0.0866    1.2728   -0.6277 H   0  0  0  0  0  0  0  0  0  0  0  0
    0.2613    0.9179    1.1201 H   0  0  0  0  0  0  0  0  0  0  0  0
    3.6698   -0.7073   -1.3842 H   0  0  0  0  0  0  0  0  0  0  0  0
    3.8438   -1.0607    0.3565 H   0  0  0  0  0  0  0  0  0  0  0  0
    5.9279   -0.0729   -0.5662 H   0  0  0  0  0  0  0  0  0  0  0  0
    5.2053    1.0151    0.6341 H   0  0  0  0  0  0  0  0  0  0  0  0
    5.0328    1.3655   -1.0917 H   0  0  0  0  0  0  0  0  0  0  0  0
  1  2  1  0
  2  3  1  0
  3  4  1  0
  4  5  1  0
  5  6  1  0
  6  7  1  0
  7  8  2  0
  7  9  1  0
  9 10  1  0
  1 11  1  0
  1 12  1  0
  1 13  1  0
  2 14  1  0
  2 15  1  0
  3 16  1  0
  3 17  1  0
  4 18  1  0
  4 19  1  0
  5 20  1  0
  5 21  1  0
  9 22  1  0
  9 23  1  0
 10 24  1  0
 10 25  1  0
 10 26  1  0
M  END
>  <Energy>  (1) 
-13.190093699999663

>  <Real charge>  (1) 
0

>  <Mult>  (1) 
1

$$$$
mol_636 65
     RDKit          3D

 26 25  0  0  0  0  0  0  0  0999 V2000
   -3.9554    1.2310    0.5819 C   0  0  0  0  0  0  0  0  0  0  0  0
   -3.1935   -0.0337    0.9447 C   0  0  0  0  0  0  0  0  0  0  0  0
   -1.8421   -0.0972    0.2326 C   0  0  0  0  0  0  0  0  0  0  0  0
   -1.0799   -1.3735    0.6009 C   0  0  0  0  0  0  0  0  0  0  0  0
    0.2589   -1.4760   -0.1253 C   0  0  0  0  0  0  0  0  0  0  0  0
    1.1052   -0.3991    0.2969 O   0  0  0  0  0  0  0  0  0  0  0  0
    2.3283   -0.3784   -0.3054 C   0  0  0  0  0  0  0  0  0  0  0  0
    2.7166   -1.1875   -1.1354 O   0  0  0  0  0  0  0  0  0  0  0  0
    3.1210    0.7967    0.2145 C   0  0  0  0  0  0  0  0  0  0  0  0
    4.4973    0.8823   -0.4215 C   0  0  0  0  0  0  0  0  0  0  0  0
   -3.3916    2.1245    0.8684 H   0  0  0  0  0  0  0  0  0  0  0  0
   -4.9182    1.2557    1.1017 H   0  0  0  0  0  0  0  0  0  0  0  0
   -4.1491    1.2771   -0.4946 H   0  0  0  0  0  0  0  0  0  0  0  0
   -3.0442   -0.0646    2.0302 H   0  0  0  0  0  0  0  0  0  0  0  0
   -3.7982   -0.9074    0.6750 H   0  0  0  0  0  0  0  0  0  0  0  0
   -1.9972   -0.0636   -0.8527 H   0  0  0  0  0  0  0  0  0  0  0  0
   -1.2475    0.7841    0.5012 H   0  0  0  0  0  0  0  0  0  0  0  0
   -0.9053   -1.3823    1.6837 H   0  0  0  0  0  0  0  0  0  0  0  0
   -1.6885   -2.2511    0.3543 H   0  0  0  0  0  0  0  0  0  0  0  0
    0.7356   -2.4296    0.1299 H   0  0  0  0  0  0  0  0  0  0  0  0
    0.1052   -1.4261   -1.2098 H   0  0  0  0  0  0  0  0  0  0  0  0
    2.5635    1.7140   -0.0025 H   0  0  0  0  0  0  0  0  0  0  0  0
    3.2283    0.6898    1.2990 H   0  0  0  0  0  0  0  0  0  0  0  0
    4.4220    0.9939   -1.5083 H   0  0  0  0  0  0  0  0  0  0  0  0
    5.0816   -0.0211   -0.2176 H   0  0  0  0  0  0  0  0  0  0  0  0
    5.0471    1.7421   -0.0264 H   0  0  0  0  0  0  0  0  0  0  0  0
  1  2  1  0
  2  3  1  0
  3  4  1  0
  4  5  1  0
  5  6  1  0
  6  7  1  0
  7  8  2  0
  7  9  1  0
  9 10  1  0
  1 11  1  0
  1 12  1  0
  1 13  1  0
  2 14  1  0
  2 15  1  0
  3 16  1  0
  3 17  1  0
  4 18  1  0
  4 19  1  0
  5 20  1  0
  5 21  1  0
  9 22  1  0
  9 23  1  0
 10 24  1  0
 10 25  1  0
 10 26  1  0
M  END
>  <Energy>  (2) 
-12.959858842310492

>  <Real charge>  (2) 
0

>  <Mult>  (2) 
1

$$$$
mol_636 366
     RDKit          3D

 26 25  0  0  0  0  0  0  0  0999 V2000
    4.4332    0.9978   -0.0819 C   0  0  0  0  0  0  0  0  0  0  0  0
    2.9572    1.1606   -0.4080 C   0  0  0  0  0  0  0  0  0  0  0  0
    2.1888   -0.1428   -0.1919 C   0  0  0  0  0  0  0  0  0  0  0  0
    0.7068    0.0249   -0.5204 C   0  0  0  0  0  0  0  0  0  0  0  0
   -0.0652   -1.2740   -0.3088 C   0  0  0  0  0  0  0  0  0  0  0  0
   -1.4421   -1.0929   -0.6756 O   0  0  0  0  0  0  0  0  0  0  0  0
   -2.2587   -0.6111    0.3046 C   0  0  0  0  0  0  0  0  0  0  0  0
   -1.9070   -0.3255    1.4399 O   0  0  0  0  0  0  0  0  0  0  0  0
   -3.6628   -0.4835   -0.2362 C   0  0  0  0  0  0  0  0  0  0  0  0
   -4.6287    0.0537    0.8053 C   0  0  0  0  0  0  0  0  0  0  0  0
    4.5740    0.7035    0.9630 H   0  0  0  0  0  0  0  0  0  0  0  0
    4.8940    0.2360   -0.7189 H   0  0  0  0  0  0  0  0  0  0  0  0
    4.9634    1.9416   -0.2434 H   0  0  0  0  0  0  0  0  0  0  0  0
    2.8528    1.4862   -1.4495 H   0  0  0  0  0  0  0  0  0  0  0  0
    2.5347    1.9511    0.2231 H   0  0  0  0  0  0  0  0  0  0  0  0
    2.6182   -0.9312   -0.8220 H   0  0  0  0  0  0  0  0  0  0  0  0
    2.2995   -0.4661    0.8504 H   0  0  0  0  0  0  0  0  0  0  0  0
    0.2725    0.8192    0.0986 H   0  0  0  0  0  0  0  0  0  0  0  0
    0.5826    0.3535   -1.5598 H   0  0  0  0  0  0  0  0  0  0  0  0
    0.0240   -1.6390    0.7214 H   0  0  0  0  0  0  0  0  0  0  0  0
    0.3346   -2.0585   -0.9607 H   0  0  0  0  0  0  0  0  0  0  0  0
   -3.6428    0.1946   -1.0959 H   0  0  0  0  0  0  0  0  0  0  0  0
   -3.9984   -1.4722   -0.5664 H   0  0  0  0  0  0  0  0  0  0  0  0
   -4.3209    1.0457    1.1524 H   0  0  0  0  0  0  0  0  0  0  0  0
   -4.6738   -0.6069    1.6775 H   0  0  0  0  0  0  0  0  0  0  0  0
   -5.6358    0.1353    0.3852 H   0  0  0  0  0  0  0  0  0  0  0  0
  1  2  1  0
  2  3  1  0
  3  4  1  0
  4  5  1  0
  5  6  1  0
  6  7  1  0
  7  8  2  0
  7  9  1  0
  9 10  1  0
  1 11  1  0
  1 12  1  0
  1 13  1  0
  2 14  1  0
  2 15  1  0
  3 16  1  0
  3 17  1  0
  4 18  1  0
  4 19  1  0
  5 20  1  0
  5 21  1  0
  9 22  1  0
  9 23  1  0
 10 24  1  0
 10 25  1  0
 10 26  1  0
M  END
>  <Energy>  (3) 
-12.817815142986031

>  <Real charge>  (3) 
0

>  <Mult>  (3) 
1

$$$$
mol_636 62
     RDKit          3D

 26 25  0  0  0  0  0  0  0  0999 V2000
    3.6868   -0.7666    1.2866 C   0  0  0  0  0  0  0  0  0  0  0  0
    2.8637    0.2291    0.4850 C   0  0  0  0  0  0  0  0  0  0  0  0
    1.7348   -0.4635   -0.2786 C   0  0  0  0  0  0  0  0  0  0  0  0
    0.9096    0.5441   -1.0840 C   0  0  0  0  0  0  0  0  0  0  0  0
   -0.1997   -0.1296   -1.8897 C   0  0  0  0  0  0  0  0  0  0  0  0
   -1.1063   -0.8408   -1.0334 O   0  0  0  0  0  0  0  0  0  0  0  0
   -2.1092   -0.0986   -0.4830 C   0  0  0  0  0  0  0  0  0  0  0  0
   -2.2846    1.0972   -0.6650 O   0  0  0  0  0  0  0  0  0  0  0  0
   -2.9641   -0.9875    0.3883 C   0  0  0  0  0  0  0  0  0  0  0  0
   -4.0979   -0.2210    1.0464 C   0  0  0  0  0  0  0  0  0  0  0  0
    4.4881   -0.2502    1.8243 H   0  0  0  0  0  0  0  0  0  0  0  0
    4.1444   -1.5148    0.6315 H   0  0  0  0  0  0  0  0  0  0  0  0
    3.0652   -1.2875    2.0219 H   0  0  0  0  0  0  0  0  0  0  0  0
    2.4467    0.9810    1.1651 H   0  0  0  0  0  0  0  0  0  0  0  0
    3.5206    0.7554   -0.2174 H   0  0  0  0  0  0  0  0  0  0  0  0
    2.1572   -1.2158   -0.9557 H   0  0  0  0  0  0  0  0  0  0  0  0
    1.0882   -0.9936    0.4309 H   0  0  0  0  0  0  0  0  0  0  0  0
    0.4725    1.2746   -0.3932 H   0  0  0  0  0  0  0  0  0  0  0  0
    1.5639    1.0932   -1.7711 H   0  0  0  0  0  0  0  0  0  0  0  0
    0.2310   -0.8637   -2.5794 H   0  0  0  0  0  0  0  0  0  0  0  0
   -0.7375    0.6019   -2.5046 H   0  0  0  0  0  0  0  0  0  0  0  0
   -3.3794   -1.7870   -0.2340 H   0  0  0  0  0  0  0  0  0  0  0  0
   -2.3278   -1.4288    1.1627 H   0  0  0  0  0  0  0  0  0  0  0  0
   -3.7122    0.5848    1.6797 H   0  0  0  0  0  0  0  0  0  0  0  0
   -4.7559    0.2292    0.2957 H   0  0  0  0  0  0  0  0  0  0  0  0
   -4.6982   -0.8897    1.6709 H   0  0  0  0  0  0  0  0  0  0  0  0
  1  2  1  0
  2  3  1  0
  3  4  1  0
  4  5  1  0
  5  6  1  0
  6  7  1  0
  7  8  2  0
  7  9  1  0
  9 10  1  0
  1 11  1  0
  1 12  1  0
  1 13  1  0
  2 14  1  0
  2 15  1  0
  3 16  1  0
  3 17  1  0
  4 18  1  0
  4 19  1  0
  5 20  1  0
  5 21  1  0
  9 22  1  0
  9 23  1  0
 10 24  1  0
 10 25  1  0
 10 26  1  0
M  END
>  <Energy>  (4) 
-12.657796977293525

>  <Real charge>  (4) 
0

>  <Mult>  (4) 
1

$$$$
mol_636 359
     RDKit          3D

 26 25  0  0  0  0  0  0  0  0999 V2000
    4.6197   -0.1935   -0.2700 C   0  0  0  0  0  0  0  0  0  0  0  0
    3.2117   -0.5332   -0.7323 C   0  0  0  0  0  0  0  0  0  0  0  0
    2.1592    0.2319    0.0695 C   0  0  0  0  0  0  0  0  0  0  0  0
    0.7467   -0.1120   -0.3978 C   0  0  0  0  0  0  0  0  0  0  0  0
   -0.3101    0.6471    0.3971 C   0  0  0  0  0  0  0  0  0  0  0  0
   -1.5991    0.2675   -0.1029 O   0  0  0  0  0  0  0  0  0  0  0  0
   -2.6426    0.8735    0.5273 C   0  0  0  0  0  0  0  0  0  0  0  0
   -2.5465    1.6768    1.4448 O   0  0  0  0  0  0  0  0  0  0  0  0
   -3.9503    0.4043   -0.0531 C   0  0  0  0  0  0  0  0  0  0  0  0
   -4.3218   -0.9630    0.4841 C   0  0  0  0  0  0  0  0  0  0  0  0
    4.7593   -0.4516    0.7846 H   0  0  0  0  0  0  0  0  0  0  0  0
    5.3562   -0.7516   -0.8566 H   0  0  0  0  0  0  0  0  0  0  0  0
    4.8261    0.8744   -0.3930 H   0  0  0  0  0  0  0  0  0  0  0  0
    3.1154   -0.2934   -1.7976 H   0  0  0  0  0  0  0  0  0  0  0  0
    3.0490   -1.6121   -0.6264 H   0  0  0  0  0  0  0  0  0  0  0  0
    2.3289    1.3104   -0.0363 H   0  0  0  0  0  0  0  0  0  0  0  0
    2.2625   -0.0082    1.1347 H   0  0  0  0  0  0  0  0  0  0  0  0
    0.6327    0.1181   -1.4646 H   0  0  0  0  0  0  0  0  0  0  0  0
    0.5668   -1.1902   -0.3027 H   0  0  0  0  0  0  0  0  0  0  0  0
   -0.2397    0.3887    1.4602 H   0  0  0  0  0  0  0  0  0  0  0  0
   -0.1730    1.7275    0.2711 H   0  0  0  0  0  0  0  0  0  0  0  0
   -4.7224    1.1376    0.2047 H   0  0  0  0  0  0  0  0  0  0  0  0
   -3.8765    0.3947   -1.1459 H   0  0  0  0  0  0  0  0  0  0  0  0
   -4.3913   -0.9493    1.5769 H   0  0  0  0  0  0  0  0  0  0  0  0
   -5.2883   -1.2819    0.0821 H   0  0  0  0  0  0  0  0  0  0  0  0
   -3.5726   -1.7126    0.2087 H   0  0  0  0  0  0  0  0  0  0  0  0
  1  2  1  0
  2  3  1  0
  3  4  1  0
  4  5  1  0
  5  6  1  0
  6  7  1  0
  7  8  2  0
  7  9  1  0
  9 10  1  0
  1 11  1  0
  1 12  1  0
  1 13  1  0
  2 14  1  0
  2 15  1  0
  3 16  1  0
  3 17  1  0
  4 18  1  0
  4 19  1  0
  5 20  1  0
  5 21  1  0
  9 22  1  0
  9 23  1  0
 10 24  1  0
 10 25  1  0
 10 26  1  0
M  END
>  <Energy>  (5) 
-12.508665906144522

>  <Real charge>  (5) 
0

>  <Mult>  (5) 
1

$$$$
mol_636 143
     RDKit          3D

 26 25  0  0  0  0  0  0  0  0999 V2000
   -4.4366    0.0252    0.7807 C   0  0  0  0  0  0  0  0  0  0  0  0
   -2.9977   -0.3477    0.4574 C   0  0  0  0  0  0  0  0  0  0  0  0
   -2.3486    0.6843   -0.4654 C   0  0  0  0  0  0  0  0  0  0  0  0
   -0.9368    0.2986   -0.9074 C   0  0  0  0  0  0  0  0  0  0  0  0
    0.0740    0.2568    0.2343 C   0  0  0  0  0  0  0  0  0  0  0  0
    1.3656   -0.0137   -0.3300 O   0  0  0  0  0  0  0  0  0  0  0  0
    2.3757   -0.0683    0.5847 C   0  0  0  0  0  0  0  0  0  0  0  0
    2.2422    0.0920    1.7892 O   0  0  0  0  0  0  0  0  0  0  0  0
    3.6770   -0.3568   -0.1246 C   0  0  0  0  0  0  0  0  0  0  0  0
    4.8477   -0.4312    0.8398 C   0  0  0  0  0  0  0  0  0  0  0  0
   -4.8819   -0.7229    1.4441 H   0  0  0  0  0  0  0  0  0  0  0  0
   -5.0432    0.0757   -0.1291 H   0  0  0  0  0  0  0  0  0  0  0  0
   -4.4866    0.9970    1.2821 H   0  0  0  0  0  0  0  0  0  0  0  0
   -2.4375   -0.4259    1.3952 H   0  0  0  0  0  0  0  0  0  0  0  0
   -2.9806   -1.3355   -0.0172 H   0  0  0  0  0  0  0  0  0  0  0  0
   -2.9681    0.8024   -1.3631 H   0  0  0  0  0  0  0  0  0  0  0  0
   -2.3239    1.6620    0.0312 H   0  0  0  0  0  0  0  0  0  0  0  0
   -0.9520   -0.6721   -1.4185 H   0  0  0  0  0  0  0  0  0  0  0  0
   -0.5908    1.0195   -1.6592 H   0  0  0  0  0  0  0  0  0  0  0  0
    0.0974    1.2224    0.7525 H   0  0  0  0  0  0  0  0  0  0  0  0
   -0.1784   -0.5383    0.9439 H   0  0  0  0  0  0  0  0  0  0  0  0
    3.8581    0.4395   -0.8542 H   0  0  0  0  0  0  0  0  0  0  0  0
    3.5801   -1.3117   -0.6518 H   0  0  0  0  0  0  0  0  0  0  0  0
    5.7751   -0.6410    0.2982 H   0  0  0  0  0  0  0  0  0  0  0  0
    4.9726    0.5131    1.3801 H   0  0  0  0  0  0  0  0  0  0  0  0
    4.6970   -1.2233    1.5808 H   0  0  0  0  0  0  0  0  0  0  0  0
  1  2  1  0
  2  3  1  0
  3  4  1  0
  4  5  1  0
  5  6  1  0
  6  7  1  0
  7  8  2  0
  7  9  1  0
  9 10  1  0
  1 11  1  0
  1 12  1  0
  1 13  1  0
  2 14  1  0
  2 15  1  0
  3 16  1  0
  3 17  1  0
  4 18  1  0
  4 19  1  0
  5 20  1  0
  5 21  1  0
  9 22  1  0
  9 23  1  0
 10 24  1  0
 10 25  1  0
 10 26  1  0
M  END
>  <Energy>  (6) 
-12.392657735919931

>  <Real charge>  (6) 
0

>  <Mult>  (6) 
1

$$$$
mol_636 50
     RDKit          3D

 26 25  0  0  0  0  0  0  0  0999 V2000
    4.1091   -0.6718    0.1116 C   0  0  0  0  0  0  0  0  0  0  0  0
    3.6025    0.7614    0.1619 C   0  0  0  0  0  0  0  0  0  0  0  0
    2.2482    0.9550   -0.5233 C   0  0  0  0  0  0  0  0  0  0  0  0
    1.1054    0.2212    0.1765 C   0  0  0  0  0  0  0  0  0  0  0  0
   -0.2392    0.5257   -0.4768 C   0  0  0  0  0  0  0  0  0  0  0  0
   -1.2523   -0.1996    0.2331 O   0  0  0  0  0  0  0  0  0  0  0  0
   -2.5138   -0.0177   -0.2518 C   0  0  0  0  0  0  0  0  0  0  0  0
   -2.8049    0.6909   -1.2045 O   0  0  0  0  0  0  0  0  0  0  0  0
   -3.4871   -0.8266    0.5715 C   0  0  0  0  0  0  0  0  0  0  0  0
   -4.9162   -0.6688    0.0829 C   0  0  0  0  0  0  0  0  0  0  0  0
    3.4727   -1.3433    0.6951 H   0  0  0  0  0  0  0  0  0  0  0  0
    5.1194   -0.7275    0.5295 H   0  0  0  0  0  0  0  0  0  0  0  0
    4.1483   -1.0390   -0.9188 H   0  0  0  0  0  0  0  0  0  0  0  0
    3.5434    1.0910    1.2057 H   0  0  0  0  0  0  0  0  0  0  0  0
    4.3373    1.4075   -0.3331 H   0  0  0  0  0  0  0  0  0  0  0  0
    2.3145    0.6269   -1.5678 H   0  0  0  0  0  0  0  0  0  0  0  0
    2.0253    2.0290   -0.5433 H   0  0  0  0  0  0  0  0  0  0  0  0
    1.0652    0.5026    1.2361 H   0  0  0  0  0  0  0  0  0  0  0  0
    1.2703   -0.8624    0.1577 H   0  0  0  0  0  0  0  0  0  0  0  0
   -0.2288    0.2073   -1.5259 H   0  0  0  0  0  0  0  0  0  0  0  0
   -0.4517    1.5997   -0.4200 H   0  0  0  0  0  0  0  0  0  0  0  0
   -3.4209   -0.4936    1.6127 H   0  0  0  0  0  0  0  0  0  0  0  0
   -3.1981   -1.8812    0.5127 H   0  0  0  0  0  0  0  0  0  0  0  0
   -5.0150   -0.9986   -0.9567 H   0  0  0  0  0  0  0  0  0  0  0  0
   -5.2360    0.3773    0.1339 H   0  0  0  0  0  0  0  0  0  0  0  0
   -5.5974   -1.2654    0.6974 H   0  0  0  0  0  0  0  0  0  0  0  0
  1  2  1  0
  2  3  1  0
  3  4  1  0
  4  5  1  0
  5  6  1  0
  6  7  1  0
  7  8  2  0
  7  9  1  0
  9 10  1  0
  1 11  1  0
  1 12  1  0
  1 13  1  0
  2 14  1  0
  2 15  1  0
  3 16  1  0
  3 17  1  0
  4 18  1  0
  4 19  1  0
  5 20  1  0
  5 21  1  0
  9 22  1  0
  9 23  1  0
 10 24  1  0
 10 25  1  0
 10 26  1  0
M  END
>  <Energy>  (7) 
-12.370565160516467

>  <Real charge>  (7) 
0

>  <Mult>  (7) 
1

$$$$
mol_636 381
     RDKit          3D

 26 25  0  0  0  0  0  0  0  0999 V2000
   -3.4591    1.5935    0.2734 C   0  0  0  0  0  0  0  0  0  0  0  0
   -2.8497    0.3091    0.8125 C   0  0  0  0  0  0  0  0  0  0  0  0
   -1.5680   -0.0594    0.0653 C   0  0  0  0  0  0  0  0  0  0  0  0
   -0.9591   -1.3542    0.6119 C   0  0  0  0  0  0  0  0  0  0  0  0
    0.3045   -1.7599   -0.1422 C   0  0  0  0  0  0  0  0  0  0  0  0
    1.3087   -0.7566    0.0542 O   0  0  0  0  0  0  0  0  0  0  0  0
    2.4716   -0.9899   -0.6135 C   0  0  0  0  0  0  0  0  0  0  0  0
    2.6982   -1.9588   -1.3249 O   0  0  0  0  0  0  0  0  0  0  0  0
    3.4527    0.1245   -0.3629 C   0  0  0  0  0  0  0  0  0  0  0  0
    3.0754    1.3680   -1.1431 C   0  0  0  0  0  0  0  0  0  0  0  0
   -4.3743    1.8381    0.8215 H   0  0  0  0  0  0  0  0  0  0  0  0
   -2.7643    2.4326    0.3808 H   0  0  0  0  0  0  0  0  0  0  0  0
   -3.7145    1.4919   -0.7862 H   0  0  0  0  0  0  0  0  0  0  0  0
   -2.6357    0.4332    1.8804 H   0  0  0  0  0  0  0  0  0  0  0  0
   -3.5812   -0.5021    0.7201 H   0  0  0  0  0  0  0  0  0  0  0  0
   -0.8456    0.7608    0.1554 H   0  0  0  0  0  0  0  0  0  0  0  0
   -1.7874   -0.1802   -1.0026 H   0  0  0  0  0  0  0  0  0  0  0  0
   -0.7175   -1.2122    1.6723 H   0  0  0  0  0  0  0  0  0  0  0  0
   -1.6929   -2.1654    0.5429 H   0  0  0  0  0  0  0  0  0  0  0  0
    0.6698   -2.7154    0.2515 H   0  0  0  0  0  0  0  0  0  0  0  0
    0.0876   -1.8674   -1.2116 H   0  0  0  0  0  0  0  0  0  0  0  0
    4.4484   -0.2218   -0.6613 H   0  0  0  0  0  0  0  0  0  0  0  0
    3.4967    0.3283    0.7124 H   0  0  0  0  0  0  0  0  0  0  0  0
    2.0966    1.7482   -0.8324 H   0  0  0  0  0  0  0  0  0  0  0  0
    3.0239    1.1567   -2.2163 H   0  0  0  0  0  0  0  0  0  0  0  0
    3.8151    2.1583   -0.9832 H   0  0  0  0  0  0  0  0  0  0  0  0
  1  2  1  0
  2  3  1  0
  3  4  1  0
  4  5  1  0
  5  6  1  0
  6  7  1  0
  7  8  2  0
  7  9  1  0
  9 10  1  0
  1 11  1  0
  1 12  1  0
  1 13  1  0
  2 14  1  0
  2 15  1  0
  3 16  1  0
  3 17  1  0
  4 18  1  0
  4 19  1  0
  5 20  1  0
  5 21  1  0
  9 22  1  0
  9 23  1  0
 10 24  1  0
 10 25  1  0
 10 26  1  0
M  END
>  <Energy>  (8) 
-12.349419649900439

>  <Real charge>  (8) 
0

>  <Mult>  (8) 
1

$$$$
mol_636 31
     RDKit          3D

 26 25  0  0  0  0  0  0  0  0999 V2000
   -3.9049   -1.0268    0.2350 C   0  0  0  0  0  0  0  0  0  0  0  0
   -3.0279    0.1677    0.5749 C   0  0  0  0  0  0  0  0  0  0  0  0
   -1.7338    0.1621   -0.2391 C   0  0  0  0  0  0  0  0  0  0  0  0
   -0.8552    1.3679    0.1067 C   0  0  0  0  0  0  0  0  0  0  0  0
    0.4281    1.4027   -0.7191 C   0  0  0  0  0  0  0  0  0  0  0  0
    1.2228    0.2539   -0.3988 O   0  0  0  0  0  0  0  0  0  0  0  0
    2.3934    0.1737   -1.0887 C   0  0  0  0  0  0  0  0  0  0  0  0
    2.7850    0.9845   -1.9167 O   0  0  0  0  0  0  0  0  0  0  0  0
    3.1594   -1.0566   -0.6806 C   0  0  0  0  0  0  0  0  0  0  0  0
    3.8493   -0.8491    0.6525 C   0  0  0  0  0  0  0  0  0  0  0  0
   -4.8245   -1.0028    0.8280 H   0  0  0  0  0  0  0  0  0  0  0  0
   -4.1831   -1.0206   -0.8237 H   0  0  0  0  0  0  0  0  0  0  0  0
   -3.3872   -1.9673    0.4490 H   0  0  0  0  0  0  0  0  0  0  0  0
   -3.5865    1.0906    0.3804 H   0  0  0  0  0  0  0  0  0  0  0  0
   -2.7943    0.1491    1.6458 H   0  0  0  0  0  0  0  0  0  0  0  0
   -1.9734    0.1785   -1.3093 H   0  0  0  0  0  0  0  0  0  0  0  0
   -1.1859   -0.7677   -0.0451 H   0  0  0  0  0  0  0  0  0  0  0  0
   -1.4156    2.2943   -0.0643 H   0  0  0  0  0  0  0  0  0  0  0  0
   -0.5983    1.3254    1.1722 H   0  0  0  0  0  0  0  0  0  0  0  0
    0.1893    1.4036   -1.7892 H   0  0  0  0  0  0  0  0  0  0  0  0
    0.9912    2.3103   -0.4724 H   0  0  0  0  0  0  0  0  0  0  0  0
    2.4747   -1.9110   -0.6445 H   0  0  0  0  0  0  0  0  0  0  0  0
    3.8970   -1.2755   -1.4606 H   0  0  0  0  0  0  0  0  0  0  0  0
    4.4301   -1.7357    0.9243 H   0  0  0  0  0  0  0  0  0  0  0  0
    4.5288    0.0087    0.6130 H   0  0  0  0  0  0  0  0  0  0  0  0
    3.1217   -0.6596    1.4487 H   0  0  0  0  0  0  0  0  0  0  0  0
  1  2  1  0
  2  3  1  0
  3  4  1  0
  4  5  1  0
  5  6  1  0
  6  7  1  0
  7  8  2  0
  7  9  1  0
  9 10  1  0
  1 11  1  0
  1 12  1  0
  1 13  1  0
  2 14  1  0
  2 15  1  0
  3 16  1  0
  3 17  1  0
  4 18  1  0
  4 19  1  0
  5 20  1  0
  5 21  1  0
  9 22  1  0
  9 23  1  0
 10 24  1  0
 10 25  1  0
 10 26  1  0
M  END
>  <Energy>  (9) 
-12.286945215228565

>  <Real charge>  (9) 
0

>  <Mult>  (9) 
1

$$$$
mol_636 282
     RDKit          3D

 26 25  0  0  0  0  0  0  0  0999 V2000
   -3.3223    1.6165    0.0520 C   0  0  0  0  0  0  0  0  0  0  0  0
   -2.5375    0.3655   -0.3128 C   0  0  0  0  0  0  0  0  0  0  0  0
   -1.9681   -0.3175    0.9309 C   0  0  0  0  0  0  0  0  0  0  0  0
   -1.2680   -1.6471    0.6275 C   0  0  0  0  0  0  0  0  0  0  0  0
   -0.0399   -1.5272   -0.2719 C   0  0  0  0  0  0  0  0  0  0  0  0
    0.9027   -0.6344    0.3341 O   0  0  0  0  0  0  0  0  0  0  0  0
    2.0294   -0.4226   -0.4040 C   0  0  0  0  0  0  0  0  0  0  0  0
    2.2644   -0.9323   -1.4899 O   0  0  0  0  0  0  0  0  0  0  0  0
    2.9345    0.5365    0.3312 C   0  0  0  0  0  0  0  0  0  0  0  0
    4.2092    0.8242   -0.4424 C   0  0  0  0  0  0  0  0  0  0  0  0
   -2.6854    2.3423    0.5677 H   0  0  0  0  0  0  0  0  0  0  0  0
   -4.1665    1.3739    0.7053 H   0  0  0  0  0  0  0  0  0  0  0  0
   -3.7178    2.0923   -0.8508 H   0  0  0  0  0  0  0  0  0  0  0  0
   -3.1948   -0.3271   -0.8510 H   0  0  0  0  0  0  0  0  0  0  0  0
   -1.7291    0.6473   -0.9960 H   0  0  0  0  0  0  0  0  0  0  0  0
   -1.2752    0.3621    1.4415 H   0  0  0  0  0  0  0  0  0  0  0  0
   -2.7845   -0.5168    1.6365 H   0  0  0  0  0  0  0  0  0  0  0  0
   -1.9813   -2.3452    0.1742 H   0  0  0  0  0  0  0  0  0  0  0  0
   -0.9564   -2.0811    1.5858 H   0  0  0  0  0  0  0  0  0  0  0  0
   -0.3223   -1.1585   -1.2642 H   0  0  0  0  0  0  0  0  0  0  0  0
    0.4213   -2.5159   -0.3813 H   0  0  0  0  0  0  0  0  0  0  0  0
    3.1899    0.0974    1.3013 H   0  0  0  0  0  0  0  0  0  0  0  0
    2.3895    1.4724    0.4929 H   0  0  0  0  0  0  0  0  0  0  0  0
    3.9852    1.2683   -1.4180 H   0  0  0  0  0  0  0  0  0  0  0  0
    4.8435    1.5213    0.1136 H   0  0  0  0  0  0  0  0  0  0  0  0
    4.7797   -0.0943   -0.6159 H   0  0  0  0  0  0  0  0  0  0  0  0
  1  2  1  0
  2  3  1  0
  3  4  1  0
  4  5  1  0
  5  6  1  0
  6  7  1  0
  7  8  2  0
  7  9  1  0
  9 10  1  0
  1 11  1  0
  1 12  1  0
  1 13  1  0
  2 14  1  0
  2 15  1  0
  3 16  1  0
  3 17  1  0
  4 18  1  0
  4 19  1  0
  5 20  1  0
  5 21  1  0
  9 22  1  0
  9 23  1  0
 10 24  1  0
 10 25  1  0
 10 26  1  0
M  END
>  <Energy>  (10) 
-12.284551166347745

>  <Real charge>  (10) 
0

>  <Mult>  (10) 
1

$$$$
mol_636 383
     RDKit          3D

 26 25  0  0  0  0  0  0  0  0999 V2000
    4.3047   -0.4132   -0.7903 C   0  0  0  0  0  0  0  0  0  0  0  0
    2.8349   -0.7719   -0.6405 C   0  0  0  0  0  0  0  0  0  0  0  0
    2.0555    0.3408    0.0597 C   0  0  0  0  0  0  0  0  0  0  0  0
    0.5797   -0.0233    0.2081 C   0  0  0  0  0  0  0  0  0  0  0  0
   -0.2035    1.0828    0.9089 C   0  0  0  0  0  0  0  0  0  0  0  0
   -1.5728    0.6834    1.0758 O   0  0  0  0  0  0  0  0  0  0  0  0
   -2.3998    0.9535    0.0286 C   0  0  0  0  0  0  0  0  0  0  0  0
   -2.0708    1.4938   -1.0182 O   0  0  0  0  0  0  0  0  0  0  0  0
   -3.7936    0.4673    0.3253 C   0  0  0  0  0  0  0  0  0  0  0  0
   -3.9051   -1.0257    0.0911 C   0  0  0  0  0  0  0  0  0  0  0  0
    4.8430   -1.2226   -1.2934 H   0  0  0  0  0  0  0  0  0  0  0  0
    4.4277    0.4976   -1.3849 H   0  0  0  0  0  0  0  0  0  0  0  0
    4.7707   -0.2515    0.1870 H   0  0  0  0  0  0  0  0  0  0  0  0
    2.7485   -1.7035   -0.0693 H   0  0  0  0  0  0  0  0  0  0  0  0
    2.4075   -0.9586   -1.6326 H   0  0  0  0  0  0  0  0  0  0  0  0
    2.1481    1.2713   -0.5136 H   0  0  0  0  0  0  0  0  0  0  0  0
    2.4896    0.5266    1.0497 H   0  0  0  0  0  0  0  0  0  0  0  0
    0.4734   -0.9562    0.7757 H   0  0  0  0  0  0  0  0  0  0  0  0
    0.1407   -0.2210   -0.7772 H   0  0  0  0  0  0  0  0  0  0  0  0
    0.2012    1.2511    1.9128 H   0  0  0  0  0  0  0  0  0  0  0  0
   -0.1329    2.0364    0.3719 H   0  0  0  0  0  0  0  0  0  0  0  0
   -4.0551    0.7277    1.3567 H   0  0  0  0  0  0  0  0  0  0  0  0
   -4.4910    1.0090   -0.3230 H   0  0  0  0  0  0  0  0  0  0  0  0
   -3.6419   -1.2814   -0.9407 H   0  0  0  0  0  0  0  0  0  0  0  0
   -4.9275   -1.3669    0.2799 H   0  0  0  0  0  0  0  0  0  0  0  0
   -3.2313   -1.5805    0.7524 H   0  0  0  0  0  0  0  0  0  0  0  0
  1  2  1  0
  2  3  1  0
  3  4  1  0
  4  5  1  0
  5  6  1  0
  6  7  1  0
  7  8  2  0
  7  9  1  0
  9 10  1  0
  1 11  1  0
  1 12  1  0
  1 13  1  0
  2 14  1  0
  2 15  1  0
  3 16  1  0
  3 17  1  0
  4 18  1  0
  4 19  1  0
  5 20  1  0
  5 21  1  0
  9 22  1  0
  9 23  1  0
 10 24  1  0
 10 25  1  0
 10 26  1  0
M  END
>  <Energy>  (11) 
-12.191783549900112

>  <Real charge>  (11) 
0

>  <Mult>  (11) 
1

$$$$
