mol_316 169
     RDKit          3D

 23 23  0  0  0  0  0  0  0  0999 V2000
    4.3163    0.4312    0.2253 C   0  0  0  0  0  0  0  0  0  0  0  0
    3.4943   -0.7269    0.1558 O   0  0  0  0  0  0  0  0  0  0  0  0
    2.1460   -0.5219    0.0581 C   0  0  0  0  0  0  0  0  0  0  0  0
    1.3800   -1.6875    0.0028 C   0  0  0  0  0  0  0  0  0  0  0  0
   -0.0132   -1.6226   -0.0986 C   0  0  0  0  0  0  0  0  0  0  0  0
   -0.6657   -0.3861   -0.1347 C   0  0  0  0  0  0  0  0  0  0  0  0
   -2.1283   -0.3567   -0.2725 C   0  0  0  0  0  0  0  0  0  0  0  0
   -2.9245    0.5531    0.3108 C   0  0  0  0  0  0  0  0  0  0  0  0
   -4.4121    0.5630    0.1689 C   0  0  0  0  0  0  0  0  0  0  0  0
    0.1079    0.7803   -0.0950 C   0  0  0  0  0  0  0  0  0  0  0  0
    1.5041    0.7144    0.0057 C   0  0  0  0  0  0  0  0  0  0  0  0
    5.3557    0.0989    0.3076 H   0  0  0  0  0  0  0  0  0  0  0  0
    4.0859    1.0266    1.1150 H   0  0  0  0  0  0  0  0  0  0  0  0
    4.2301    1.0316   -0.6863 H   0  0  0  0  0  0  0  0  0  0  0  0
    1.8715   -2.6566    0.0382 H   0  0  0  0  0  0  0  0  0  0  0  0
   -0.5810   -2.5491   -0.1393 H   0  0  0  0  0  0  0  0  0  0  0  0
   -2.5611   -1.1507   -0.8774 H   0  0  0  0  0  0  0  0  0  0  0  0
   -2.5044    1.3328    0.9415 H   0  0  0  0  0  0  0  0  0  0  0  0
   -4.7736   -0.2502   -0.4684 H   0  0  0  0  0  0  0  0  0  0  0  0
   -4.8807    0.4599    1.1524 H   0  0  0  0  0  0  0  0  0  0  0  0
   -4.7377    1.5110   -0.2700 H   0  0  0  0  0  0  0  0  0  0  0  0
   -0.3653    1.7575   -0.1536 H   0  0  0  0  0  0  0  0  0  0  0  0
    2.0556    1.6478    0.0349 H   0  0  0  0  0  0  0  0  0  0  0  0
  1  2  1  0
  2  3  1  0
  3  4  2  0
  4  5  1  0
  5  6  2  0
  6  7  1  0
  7  8  2  3
  8  9  1  0
  6 10  1  0
 10 11  2  0
 11  3  1  0
  1 12  1  0
  1 13  1  0
  1 14  1  0
  4 15  1  0
  5 16  1  0
  7 17  1  0
  8 18  1  0
  9 19  1  0
  9 20  1  0
  9 21  1  0
 10 22  1  0
 11 23  1  0
M  END
>  <Energy>  (1) 
24.107330727493178

>  <Real charge>  (1) 
0

>  <Mult>  (1) 
1

$$$$
mol_316 141
     RDKit          3D

 23 23  0  0  0  0  0  0  0  0999 V2000
    4.4176    0.0210   -0.1610 C   0  0  0  0  0  0  0  0  0  0  0  0
    3.3961   -0.9220    0.1371 O   0  0  0  0  0  0  0  0  0  0  0  0
    2.1050   -0.5154   -0.0560 C   0  0  0  0  0  0  0  0  0  0  0  0
    1.6977    0.7307   -0.5297 C   0  0  0  0  0  0  0  0  0  0  0  0
    0.3341    1.0152   -0.6812 C   0  0  0  0  0  0  0  0  0  0  0  0
   -0.6404    0.0654   -0.3512 C   0  0  0  0  0  0  0  0  0  0  0  0
   -2.0568    0.3985   -0.5550 C   0  0  0  0  0  0  0  0  0  0  0  0
   -3.0517   -0.0111    0.2479 C   0  0  0  0  0  0  0  0  0  0  0  0
   -4.4876    0.3429    0.0335 C   0  0  0  0  0  0  0  0  0  0  0  0
   -0.2236   -1.1880    0.1085 C   0  0  0  0  0  0  0  0  0  0  0  0
    1.1377   -1.4715    0.2585 C   0  0  0  0  0  0  0  0  0  0  0  0
    4.3350    0.9078    0.4762 H   0  0  0  0  0  0  0  0  0  0  0  0
    5.3814   -0.4520    0.0508 H   0  0  0  0  0  0  0  0  0  0  0  0
    4.4064    0.2930   -1.2217 H   0  0  0  0  0  0  0  0  0  0  0  0
    2.4106    1.5046   -0.7924 H   0  0  0  0  0  0  0  0  0  0  0  0
    0.0409    1.9949   -1.0524 H   0  0  0  0  0  0  0  0  0  0  0  0
   -2.2744    1.0349   -1.4099 H   0  0  0  0  0  0  0  0  0  0  0  0
   -2.8409   -0.6241    1.1210 H   0  0  0  0  0  0  0  0  0  0  0  0
   -5.0811   -0.5682   -0.0890 H   0  0  0  0  0  0  0  0  0  0  0  0
   -4.8701    0.8889    0.9013 H   0  0  0  0  0  0  0  0  0  0  0  0
   -4.6331    0.9669   -0.8539 H   0  0  0  0  0  0  0  0  0  0  0  0
   -0.9483   -1.9626    0.3450 H   0  0  0  0  0  0  0  0  0  0  0  0
    1.4454   -2.4497    0.6198 H   0  0  0  0  0  0  0  0  0  0  0  0
  1  2  1  0
  2  3  1  0
  3  4  2  0
  4  5  1  0
  5  6  2  0
  6  7  1  0
  7  8  2  3
  8  9  1  0
  6 10  1  0
 10 11  2  0
 11  3  1  0
  1 12  1  0
  1 13  1  0
  1 14  1  0
  4 15  1  0
  5 16  1  0
  7 17  1  0
  8 18  1  0
  9 19  1  0
  9 20  1  0
  9 21  1  0
 10 22  1  0
 11 23  1  0
M  END
>  <Energy>  (2) 
24.137867196478226

>  <Real charge>  (2) 
0

>  <Mult>  (2) 
1

$$$$
