mol_285 26
     RDKit          3D

 23 22  0  0  0  0  0  0  0  0999 V2000
   -3.7556    0.5003    0.5256 C   0  0  0  0  0  0  0  0  0  0  0  0
   -2.5768   -0.3337    0.0499 C   0  0  0  0  0  0  0  0  0  0  0  0
   -1.2493    0.3849    0.2897 C   0  0  0  0  0  0  0  0  0  0  0  0
   -0.0661   -0.4573   -0.1902 C   0  0  0  0  0  0  0  0  0  0  0  0
    1.2624    0.2618    0.0496 C   0  0  0  0  0  0  0  0  0  0  0  0
    2.4460   -0.5803   -0.4302 C   0  0  0  0  0  0  0  0  0  0  0  0
    3.7654    0.1410   -0.1886 C   0  0  0  0  0  0  0  0  0  0  0  0
    5.1284   -0.8529   -0.7525 Cl  0  0  0  0  0  0  0  0  0  0  0  0
   -3.7996    1.4564   -0.0057 H   0  0  0  0  0  0  0  0  0  0  0  0
   -4.6944   -0.0324    0.3446 H   0  0  0  0  0  0  0  0  0  0  0  0
   -3.6831    0.7060    1.5984 H   0  0  0  0  0  0  0  0  0  0  0  0
   -2.5805   -1.2950    0.5769 H   0  0  0  0  0  0  0  0  0  0  0  0
   -2.6964   -0.5488   -1.0183 H   0  0  0  0  0  0  0  0  0  0  0  0
   -1.2524    1.3475   -0.2362 H   0  0  0  0  0  0  0  0  0  0  0  0
   -1.1366    0.6014    1.3590 H   0  0  0  0  0  0  0  0  0  0  0  0
   -0.0631   -1.4198    0.3358 H   0  0  0  0  0  0  0  0  0  0  0  0
   -0.1789   -0.6735   -1.2596 H   0  0  0  0  0  0  0  0  0  0  0  0
    1.3753    0.4780    1.1190 H   0  0  0  0  0  0  0  0  0  0  0  0
    1.2594    1.2243   -0.4764 H   0  0  0  0  0  0  0  0  0  0  0  0
    2.3307   -0.7965   -1.4996 H   0  0  0  0  0  0  0  0  0  0  0  0
    2.4466   -1.5429    0.0961 H   0  0  0  0  0  0  0  0  0  0  0  0
    3.8010    1.0913   -0.7297 H   0  0  0  0  0  0  0  0  0  0  0  0
    3.9177    0.3401    0.8764 H   0  0  0  0  0  0  0  0  0  0  0  0
  1  2  1  0
  2  3  1  0
  3  4  1  0
  4  5  1  0
  5  6  1  0
  6  7  1  0
  7  8  1  0
  1  9  1  0
  1 10  1  0
  1 11  1  0
  2 12  1  0
  2 13  1  0
  3 14  1  0
  3 15  1  0
  4 16  1  0
  4 17  1  0
  5 18  1  0
  5 19  1  0
  6 20  1  0
  6 21  1  0
  7 22  1  0
  7 23  1  0
M  END
>  <Energy>  (1) 
-3.200184957087884

>  <Real charge>  (1) 
0

>  <Mult>  (1) 
1

$$$$
mol_285 318
     RDKit          3D

 23 22  0  0  0  0  0  0  0  0999 V2000
    3.7208    0.8084   -0.0725 C   0  0  0  0  0  0  0  0  0  0  0  0
    2.5818   -0.1980   -0.0347 C   0  0  0  0  0  0  0  0  0  0  0  0
    1.2205    0.4944   -0.0933 C   0  0  0  0  0  0  0  0  0  0  0  0
    0.0775   -0.5215   -0.0550 C   0  0  0  0  0  0  0  0  0  0  0  0
   -1.2857    0.1716   -0.1140 C   0  0  0  0  0  0  0  0  0  0  0  0
   -2.4276   -0.8485   -0.0759 C   0  0  0  0  0  0  0  0  0  0  0  0
   -3.8078   -0.2144   -0.2156 C   0  0  0  0  0  0  0  0  0  0  0  0
   -4.2231    0.7988    1.1860 Cl  0  0  0  0  0  0  0  0  0  0  0  0
    3.6654    1.4956    0.7779 H   0  0  0  0  0  0  0  0  0  0  0  0
    3.6924    1.3986   -0.9940 H   0  0  0  0  0  0  0  0  0  0  0  0
    4.6847    0.2918   -0.0296 H   0  0  0  0  0  0  0  0  0  0  0  0
    2.6580   -0.7929    0.8829 H   0  0  0  0  0  0  0  0  0  0  0  0
    2.6848   -0.8894   -0.8792 H   0  0  0  0  0  0  0  0  0  0  0  0
    1.1244    1.1878    0.7511 H   0  0  0  0  0  0  0  0  0  0  0  0
    1.1510    1.0912   -1.0109 H   0  0  0  0  0  0  0  0  0  0  0  0
    0.1744   -1.2148   -0.8993 H   0  0  0  0  0  0  0  0  0  0  0  0
    0.1465   -1.1178    0.8630 H   0  0  0  0  0  0  0  0  0  0  0  0
   -1.3711    0.8680    0.7278 H   0  0  0  0  0  0  0  0  0  0  0  0
   -1.3553    0.7649   -1.0339 H   0  0  0  0  0  0  0  0  0  0  0  0
   -2.3766   -1.4300    0.8529 H   0  0  0  0  0  0  0  0  0  0  0  0
   -2.2946   -1.5603   -0.9001 H   0  0  0  0  0  0  0  0  0  0  0  0
   -4.5730   -0.9930   -0.2894 H   0  0  0  0  0  0  0  0  0  0  0  0
   -3.8674    0.4097   -1.1125 H   0  0  0  0  0  0  0  0  0  0  0  0
  1  2  1  0
  2  3  1  0
  3  4  1  0
  4  5  1  0
  5  6  1  0
  6  7  1  0
  7  8  1  0
  1  9  1  0
  1 10  1  0
  1 11  1  0
  2 12  1  0
  2 13  1  0
  3 14  1  0
  3 15  1  0
  4 16  1  0
  4 17  1  0
  5 18  1  0
  5 19  1  0
  6 20  1  0
  6 21  1  0
  7 22  1  0
  7 23  1  0
M  END
>  <Energy>  (2) 
-3.1811695447211177

>  <Real charge>  (2) 
0

>  <Mult>  (2) 
1

$$$$
mol_285 328
     RDKit          3D

 23 22  0  0  0  0  0  0  0  0999 V2000
   -3.5989    0.7799    0.1163 C   0  0  0  0  0  0  0  0  0  0  0  0
   -2.3650   -0.0618   -0.1675 C   0  0  0  0  0  0  0  0  0  0  0  0
   -1.1139    0.5475    0.4648 C   0  0  0  0  0  0  0  0  0  0  0  0
    0.1256   -0.3029    0.1771 C   0  0  0  0  0  0  0  0  0  0  0  0
    1.3774    0.3119    0.8068 C   0  0  0  0  0  0  0  0  0  0  0  0
    2.6283   -0.5616    0.6565 C   0  0  0  0  0  0  0  0  0  0  0  0
    3.0603   -0.8628   -0.7756 C   0  0  0  0  0  0  0  0  0  0  0  0
    3.4749    0.6131   -1.6759 Cl  0  0  0  0  0  0  0  0  0  0  0  0
   -4.4816    0.3260   -0.3448 H   0  0  0  0  0  0  0  0  0  0  0  0
   -3.4858    1.7907   -0.2885 H   0  0  0  0  0  0  0  0  0  0  0  0
   -3.7808    0.8589    1.1929 H   0  0  0  0  0  0  0  0  0  0  0  0
   -2.2303   -0.1479   -1.2520 H   0  0  0  0  0  0  0  0  0  0  0  0
   -2.5234   -1.0745    0.2213 H   0  0  0  0  0  0  0  0  0  0  0  0
   -1.2562    0.6354    1.5487 H   0  0  0  0  0  0  0  0  0  0  0  0
   -0.9618    1.5615    0.0753 H   0  0  0  0  0  0  0  0  0  0  0  0
    0.2549   -0.3896   -0.9075 H   0  0  0  0  0  0  0  0  0  0  0  0
   -0.0247   -1.3156    0.5702 H   0  0  0  0  0  0  0  0  0  0  0  0
    1.5555    1.3063    0.3816 H   0  0  0  0  0  0  0  0  0  0  0  0
    1.1999    0.4641    1.8791 H   0  0  0  0  0  0  0  0  0  0  0  0
    3.4567   -0.0746    1.1864 H   0  0  0  0  0  0  0  0  0  0  0  0
    2.4547   -1.5149    1.1713 H   0  0  0  0  0  0  0  0  0  0  0  0
    3.9523   -1.4967   -0.7679 H   0  0  0  0  0  0  0  0  0  0  0  0
    2.2821   -1.3925   -1.3317 H   0  0  0  0  0  0  0  0  0  0  0  0
  1  2  1  0
  2  3  1  0
  3  4  1  0
  4  5  1  0
  5  6  1  0
  6  7  1  0
  7  8  1  0
  1  9  1  0
  1 10  1  0
  1 11  1  0
  2 12  1  0
  2 13  1  0
  3 14  1  0
  3 15  1  0
  4 16  1  0
  4 17  1  0
  5 18  1  0
  5 19  1  0
  6 20  1  0
  6 21  1  0
  7 22  1  0
  7 23  1  0
M  END
>  <Energy>  (3) 
-2.53688885062525

>  <Real charge>  (3) 
0

>  <Mult>  (3) 
1

$$$$
mol_285 134
     RDKit          3D

 23 22  0  0  0  0  0  0  0  0999 V2000
    3.6774    0.4372   -0.1005 C   0  0  0  0  0  0  0  0  0  0  0  0
    2.2297    0.8518   -0.3102 C   0  0  0  0  0  0  0  0  0  0  0  0
    1.2698   -0.3042   -0.0300 C   0  0  0  0  0  0  0  0  0  0  0  0
   -0.1861    0.1170   -0.2427 C   0  0  0  0  0  0  0  0  0  0  0  0
   -1.1448   -1.0413    0.0419 C   0  0  0  0  0  0  0  0  0  0  0  0
   -2.6085   -0.7073   -0.2608 C   0  0  0  0  0  0  0  0  0  0  0  0
   -3.1787    0.3694    0.6540 C   0  0  0  0  0  0  0  0  0  0  0  0
   -4.9088    0.6163    0.3134 Cl  0  0  0  0  0  0  0  0  0  0  0  0
    4.3463    1.2787   -0.3062 H   0  0  0  0  0  0  0  0  0  0  0  0
    3.8470    0.1127    0.9311 H   0  0  0  0  0  0  0  0  0  0  0  0
    3.9507   -0.3854   -0.7691 H   0  0  0  0  0  0  0  0  0  0  0  0
    1.9985    1.6963    0.3494 H   0  0  0  0  0  0  0  0  0  0  0  0
    2.1015    1.2009   -1.3415 H   0  0  0  0  0  0  0  0  0  0  0  0
    1.5089   -1.1476   -0.6893 H   0  0  0  0  0  0  0  0  0  0  0  0
    1.4044   -0.6521    1.0015 H   0  0  0  0  0  0  0  0  0  0  0  0
   -0.3212    0.4611   -1.2752 H   0  0  0  0  0  0  0  0  0  0  0  0
   -0.4133    0.9633    0.4150 H   0  0  0  0  0  0  0  0  0  0  0  0
   -1.0481   -1.3539    1.0888 H   0  0  0  0  0  0  0  0  0  0  0  0
   -0.8572   -1.9034   -0.5727 H   0  0  0  0  0  0  0  0  0  0  0  0
   -3.1965   -1.6272   -0.1484 H   0  0  0  0  0  0  0  0  0  0  0  0
   -2.7037   -0.3982   -1.3091 H   0  0  0  0  0  0  0  0  0  0  0  0
   -2.6816    1.3313    0.5052 H   0  0  0  0  0  0  0  0  0  0  0  0
   -3.0856    0.0845    1.7061 H   0  0  0  0  0  0  0  0  0  0  0  0
  1  2  1  0
  2  3  1  0
  3  4  1  0
  4  5  1  0
  5  6  1  0
  6  7  1  0
  7  8  1  0
  1  9  1  0
  1 10  1  0
  1 11  1  0
  2 12  1  0
  2 13  1  0
  3 14  1  0
  3 15  1  0
  4 16  1  0
  4 17  1  0
  5 18  1  0
  5 19  1  0
  6 20  1  0
  6 21  1  0
  7 22  1  0
  7 23  1  0
M  END
>  <Energy>  (4) 
-2.380864652982997

>  <Real charge>  (4) 
0

>  <Mult>  (4) 
1

$$$$
mol_285 34
     RDKit          3D

 23 22  0  0  0  0  0  0  0  0999 V2000
   -3.3122    0.0545   -0.0178 C   0  0  0  0  0  0  0  0  0  0  0  0
   -2.4987   -0.6589    1.0510 C   0  0  0  0  0  0  0  0  0  0  0  0
   -1.0907   -1.0440    0.5920 C   0  0  0  0  0  0  0  0  0  0  0  0
   -0.1952    0.1632    0.3046 C   0  0  0  0  0  0  0  0  0  0  0  0
    1.2287   -0.2745   -0.0463 C   0  0  0  0  0  0  0  0  0  0  0  0
    2.1259    0.9300   -0.3374 C   0  0  0  0  0  0  0  0  0  0  0  0
    3.5411    0.4877   -0.6854 C   0  0  0  0  0  0  0  0  0  0  0  0
    4.5681    1.9006   -1.0203 Cl  0  0  0  0  0  0  0  0  0  0  0  0
   -2.8881    1.0337   -0.2584 H   0  0  0  0  0  0  0  0  0  0  0  0
   -4.3360    0.2154    0.3350 H   0  0  0  0  0  0  0  0  0  0  0  0
   -3.3600   -0.5382   -0.9367 H   0  0  0  0  0  0  0  0  0  0  0  0
   -2.4404   -0.0290    1.9462 H   0  0  0  0  0  0  0  0  0  0  0  0
   -3.0310   -1.5727    1.3409 H   0  0  0  0  0  0  0  0  0  0  0  0
   -0.6292   -1.6535    1.3788 H   0  0  0  0  0  0  0  0  0  0  0  0
   -1.1556   -1.6777   -0.3009 H   0  0  0  0  0  0  0  0  0  0  0  0
   -0.1711    0.8204    1.1823 H   0  0  0  0  0  0  0  0  0  0  0  0
   -0.6060    0.7460   -0.5274 H   0  0  0  0  0  0  0  0  0  0  0  0
    1.2044   -0.9347   -0.9219 H   0  0  0  0  0  0  0  0  0  0  0  0
    1.6506   -0.8538    0.7841 H   0  0  0  0  0  0  0  0  0  0  0  0
    1.7025    1.5087   -1.1677 H   0  0  0  0  0  0  0  0  0  0  0  0
    2.1473    1.5897    0.5389 H   0  0  0  0  0  0  0  0  0  0  0  0
    3.9967   -0.0656    0.1413 H   0  0  0  0  0  0  0  0  0  0  0  0
    3.5488   -0.1473   -1.5764 H   0  0  0  0  0  0  0  0  0  0  0  0
  1  2  1  0
  2  3  1  0
  3  4  1  0
  4  5  1  0
  5  6  1  0
  6  7  1  0
  7  8  1  0
  1  9  1  0
  1 10  1  0
  1 11  1  0
  2 12  1  0
  2 13  1  0
  3 14  1  0
  3 15  1  0
  4 16  1  0
  4 17  1  0
  5 18  1  0
  5 19  1  0
  6 20  1  0
  6 21  1  0
  7 22  1  0
  7 23  1  0
M  END
>  <Energy>  (5) 
-2.3766808931556285

>  <Real charge>  (5) 
0

>  <Mult>  (5) 
1

$$$$
mol_285 95
     RDKit          3D

 23 22  0  0  0  0  0  0  0  0999 V2000
    3.3978   -0.6839   -0.6945 C   0  0  0  0  0  0  0  0  0  0  0  0
    2.4779    0.2719    0.0484 C   0  0  0  0  0  0  0  0  0  0  0  0
    1.0099    0.0204   -0.2990 C   0  0  0  0  0  0  0  0  0  0  0  0
    0.0899    0.9832    0.4548 C   0  0  0  0  0  0  0  0  0  0  0  0
   -1.3844    0.8506    0.0591 C   0  0  0  0  0  0  0  0  0  0  0  0
   -1.9965   -0.4991    0.4483 C   0  0  0  0  0  0  0  0  0  0  0  0
   -3.5065   -0.5572    0.2343 C   0  0  0  0  0  0  0  0  0  0  0  0
   -3.9410   -0.4636   -1.4879 Cl  0  0  0  0  0  0  0  0  0  0  0  0
    4.4418   -0.4861   -0.4319 H   0  0  0  0  0  0  0  0  0  0  0  0
    3.1739   -1.7240   -0.4367 H   0  0  0  0  0  0  0  0  0  0  0  0
    3.2921   -0.5676   -1.7778 H   0  0  0  0  0  0  0  0  0  0  0  0
    2.7500    1.3028   -0.2062 H   0  0  0  0  0  0  0  0  0  0  0  0
    2.6307    0.1526    1.1274 H   0  0  0  0  0  0  0  0  0  0  0  0
    0.8627    0.1404   -1.3791 H   0  0  0  0  0  0  0  0  0  0  0  0
    0.7556   -1.0157   -0.0491 H   0  0  0  0  0  0  0  0  0  0  0  0
    0.1964    0.8285    1.5354 H   0  0  0  0  0  0  0  0  0  0  0  0
    0.4061    2.0139    0.2514 H   0  0  0  0  0  0  0  0  0  0  0  0
   -1.9438    1.6530    0.5560 H   0  0  0  0  0  0  0  0  0  0  0  0
   -1.4828    1.0175   -1.0196 H   0  0  0  0  0  0  0  0  0  0  0  0
   -1.5191   -1.3096   -0.1141 H   0  0  0  0  0  0  0  0  0  0  0  0
   -1.7951   -0.6881    1.5099 H   0  0  0  0  0  0  0  0  0  0  0  0
   -3.9039   -1.5019    0.6174 H   0  0  0  0  0  0  0  0  0  0  0  0
   -4.0118    0.2621    0.7547 H   0  0  0  0  0  0  0  0  0  0  0  0
  1  2  1  0
  2  3  1  0
  3  4  1  0
  4  5  1  0
  5  6  1  0
  6  7  1  0
  7  8  1  0
  1  9  1  0
  1 10  1  0
  1 11  1  0
  2 12  1  0
  2 13  1  0
  3 14  1  0
  3 15  1  0
  4 16  1  0
  4 17  1  0
  5 18  1  0
  5 19  1  0
  6 20  1  0
  6 21  1  0
  7 22  1  0
  7 23  1  0
M  END
>  <Energy>  (6) 
-2.371969649423987

>  <Real charge>  (6) 
0

>  <Mult>  (6) 
1

$$$$
mol_285 19
     RDKit          3D

 23 22  0  0  0  0  0  0  0  0999 V2000
    3.1892    0.8911   -0.4078 C   0  0  0  0  0  0  0  0  0  0  0  0
    2.6819   -0.4899   -0.0227 C   0  0  0  0  0  0  0  0  0  0  0  0
    1.2352   -0.7501   -0.4479 C   0  0  0  0  0  0  0  0  0  0  0  0
    0.2216    0.1418    0.2726 C   0  0  0  0  0  0  0  0  0  0  0  0
   -1.2140   -0.2309   -0.1086 C   0  0  0  0  0  0  0  0  0  0  0  0
   -2.2279    0.6640    0.6106 C   0  0  0  0  0  0  0  0  0  0  0  0
   -3.6771    0.2802    0.3295 C   0  0  0  0  0  0  0  0  0  0  0  0
   -4.1277    0.5674   -1.3669 Cl  0  0  0  0  0  0  0  0  0  0  0  0
    2.6593    1.6793    0.1349 H   0  0  0  0  0  0  0  0  0  0  0  0
    3.0700    1.0686   -1.4813 H   0  0  0  0  0  0  0  0  0  0  0  0
    4.2531    0.9810   -0.1658 H   0  0  0  0  0  0  0  0  0  0  0  0
    3.3236   -1.2412   -0.4982 H   0  0  0  0  0  0  0  0  0  0  0  0
    2.7831   -0.6269    1.0602 H   0  0  0  0  0  0  0  0  0  0  0  0
    1.1412   -0.6163   -1.5325 H   0  0  0  0  0  0  0  0  0  0  0  0
    1.0007   -1.8012   -0.2381 H   0  0  0  0  0  0  0  0  0  0  0  0
    0.3510    0.0430    1.3571 H   0  0  0  0  0  0  0  0  0  0  0  0
    0.3980    1.1928    0.0177 H   0  0  0  0  0  0  0  0  0  0  0  0
   -1.4020   -1.2794    0.1523 H   0  0  0  0  0  0  0  0  0  0  0  0
   -1.3316   -0.1409   -1.1944 H   0  0  0  0  0  0  0  0  0  0  0  0
   -2.0598    0.5915    1.6924 H   0  0  0  0  0  0  0  0  0  0  0  0
   -2.0598    1.7126    0.3360 H   0  0  0  0  0  0  0  0  0  0  0  0
   -4.3511    0.8797    0.9487 H   0  0  0  0  0  0  0  0  0  0  0  0
   -3.8569   -0.7759    0.5521 H   0  0  0  0  0  0  0  0  0  0  0  0
  1  2  1  0
  2  3  1  0
  3  4  1  0
  4  5  1  0
  5  6  1  0
  6  7  1  0
  7  8  1  0
  1  9  1  0
  1 10  1  0
  1 11  1  0
  2 12  1  0
  2 13  1  0
  3 14  1  0
  3 15  1  0
  4 16  1  0
  4 17  1  0
  5 18  1  0
  5 19  1  0
  6 20  1  0
  6 21  1  0
  7 22  1  0
  7 23  1  0
M  END
>  <Energy>  (7) 
-2.359929306516518

>  <Real charge>  (7) 
0

>  <Mult>  (7) 
1

$$$$
mol_285 14
     RDKit          3D

 23 22  0  0  0  0  0  0  0  0999 V2000
   -3.3054    0.1523   -0.1052 C   0  0  0  0  0  0  0  0  0  0  0  0
   -2.4992   -1.1372   -0.1081 C   0  0  0  0  0  0  0  0  0  0  0  0
   -1.1121   -0.9924    0.5216 C   0  0  0  0  0  0  0  0  0  0  0  0
   -0.1817   -0.0681   -0.2671 C   0  0  0  0  0  0  0  0  0  0  0  0
    1.2220   -0.0416    0.3444 C   0  0  0  0  0  0  0  0  0  0  0  0
    2.1517    0.8865   -0.4431 C   0  0  0  0  0  0  0  0  0  0  0  0
    3.5413    1.0128    0.1731 C   0  0  0  0  0  0  0  0  0  0  0  0
    4.4509   -0.5133    0.0900 Cl  0  0  0  0  0  0  0  0  0  0  0  0
   -3.3872    0.5627    0.9063 H   0  0  0  0  0  0  0  0  0  0  0  0
   -2.8530    0.9101   -0.7514 H   0  0  0  0  0  0  0  0  0  0  0  0
   -4.3177   -0.0372   -0.4765 H   0  0  0  0  0  0  0  0  0  0  0  0
   -2.4060   -1.5069   -1.1358 H   0  0  0  0  0  0  0  0  0  0  0  0
   -3.0568   -1.8972    0.4524 H   0  0  0  0  0  0  0  0  0  0  0  0
   -0.6589   -1.9896    0.5835 H   0  0  0  0  0  0  0  0  0  0  0  0
   -1.2119   -0.6266    1.5508 H   0  0  0  0  0  0  0  0  0  0  0  0
   -0.1214   -0.4080   -1.3081 H   0  0  0  0  0  0  0  0  0  0  0  0
   -0.5866    0.9499   -0.2795 H   0  0  0  0  0  0  0  0  0  0  0  0
    1.1611    0.2981    1.3855 H   0  0  0  0  0  0  0  0  0  0  0  0
    1.6269   -1.0598    0.3590 H   0  0  0  0  0  0  0  0  0  0  0  0
    1.7039    1.8873   -0.4817 H   0  0  0  0  0  0  0  0  0  0  0  0
    2.2338    0.5387   -1.4803 H   0  0  0  0  0  0  0  0  0  0  0  0
    4.1240    1.7659   -0.3659 H   0  0  0  0  0  0  0  0  0  0  0  0
    3.4822    1.3136    1.2236 H   0  0  0  0  0  0  0  0  0  0  0  0
  1  2  1  0
  2  3  1  0
  3  4  1  0
  4  5  1  0
  5  6  1  0
  6  7  1  0
  7  8  1  0
  1  9  1  0
  1 10  1  0
  1 11  1  0
  2 12  1  0
  2 13  1  0
  3 14  1  0
  3 15  1  0
  4 16  1  0
  4 17  1  0
  5 18  1  0
  5 19  1  0
  6 20  1  0
  6 21  1  0
  7 22  1  0
  7 23  1  0
M  END
>  <Energy>  (8) 
-2.3553868168706216

>  <Real charge>  (8) 
0

>  <Mult>  (8) 
1

$$$$
mol_285 164
     RDKit          3D

 23 22  0  0  0  0  0  0  0  0999 V2000
   -3.5191    0.1935   -0.3943 C   0  0  0  0  0  0  0  0  0  0  0  0
   -2.4012   -0.3092    0.5053 C   0  0  0  0  0  0  0  0  0  0  0  0
   -1.0379   -0.1963   -0.1786 C   0  0  0  0  0  0  0  0  0  0  0  0
    0.0824   -0.7003    0.7338 C   0  0  0  0  0  0  0  0  0  0  0  0
    1.4568   -0.7182    0.0584 C   0  0  0  0  0  0  0  0  0  0  0  0
    1.9829    0.6764   -0.2891 C   0  0  0  0  0  0  0  0  0  0  0  0
    3.3979    0.6012   -0.8495 C   0  0  0  0  0  0  0  0  0  0  0  0
    3.9942    2.2284   -1.2504 Cl  0  0  0  0  0  0  0  0  0  0  0  0
   -3.5675   -0.3867   -1.3213 H   0  0  0  0  0  0  0  0  0  0  0  0
   -3.3697    1.2462   -0.6549 H   0  0  0  0  0  0  0  0  0  0  0  0
   -4.4842    0.1031    0.1139 H   0  0  0  0  0  0  0  0  0  0  0  0
   -2.5985   -1.3536    0.7735 H   0  0  0  0  0  0  0  0  0  0  0  0
   -2.3999    0.2704    1.4357 H   0  0  0  0  0  0  0  0  0  0  0  0
   -0.8598    0.8502   -0.4500 H   0  0  0  0  0  0  0  0  0  0  0  0
   -1.0447   -0.7775   -1.1086 H   0  0  0  0  0  0  0  0  0  0  0  0
    0.1265   -0.0855    1.6410 H   0  0  0  0  0  0  0  0  0  0  0  0
   -0.1518   -1.7224    1.0567 H   0  0  0  0  0  0  0  0  0  0  0  0
    1.4131   -1.3342   -0.8481 H   0  0  0  0  0  0  0  0  0  0  0  0
    2.1646   -1.2080    0.7388 H   0  0  0  0  0  0  0  0  0  0  0  0
    1.9721    1.3058    0.6092 H   0  0  0  0  0  0  0  0  0  0  0  0
    1.3261    1.1506   -1.0272 H   0  0  0  0  0  0  0  0  0  0  0  0
    3.4291    0.0011   -1.7639 H   0  0  0  0  0  0  0  0  0  0  0  0
    4.0889    0.1649   -0.1220 H   0  0  0  0  0  0  0  0  0  0  0  0
  1  2  1  0
  2  3  1  0
  3  4  1  0
  4  5  1  0
  5  6  1  0
  6  7  1  0
  7  8  1  0
  1  9  1  0
  1 10  1  0
  1 11  1  0
  2 12  1  0
  2 13  1  0
  3 14  1  0
  3 15  1  0
  4 16  1  0
  4 17  1  0
  5 18  1  0
  5 19  1  0
  6 20  1  0
  6 21  1  0
  7 22  1  0
  7 23  1  0
M  END
>  <Energy>  (9) 
-2.328667455604745

>  <Real charge>  (9) 
0

>  <Mult>  (9) 
1

$$$$
mol_285 353
     RDKit          3D

 23 22  0  0  0  0  0  0  0  0999 V2000
   -3.5068   -0.2080    0.4020 C   0  0  0  0  0  0  0  0  0  0  0  0
   -2.0354   -0.5304    0.1894 C   0  0  0  0  0  0  0  0  0  0  0  0
   -1.4506    0.2758   -0.9710 C   0  0  0  0  0  0  0  0  0  0  0  0
   -0.0017   -0.0946   -1.3005 C   0  0  0  0  0  0  0  0  0  0  0  0
    0.9853    0.2595   -0.1859 C   0  0  0  0  0  0  0  0  0  0  0  0
    2.4277   -0.0252   -0.6120 C   0  0  0  0  0  0  0  0  0  0  0  0
    3.4070    0.3247    0.5007 C   0  0  0  0  0  0  0  0  0  0  0  0
    5.0762   -0.0125   -0.0129 Cl  0  0  0  0  0  0  0  0  0  0  0  0
   -4.0943   -0.4480   -0.4900 H   0  0  0  0  0  0  0  0  0  0  0  0
   -3.9055   -0.7914    1.2379 H   0  0  0  0  0  0  0  0  0  0  0  0
   -3.6465    0.8533    0.6309 H   0  0  0  0  0  0  0  0  0  0  0  0
   -1.9279   -1.6028   -0.0098 H   0  0  0  0  0  0  0  0  0  0  0  0
   -1.4930   -0.3138    1.1157 H   0  0  0  0  0  0  0  0  0  0  0  0
   -2.0589    0.1044   -1.8679 H   0  0  0  0  0  0  0  0  0  0  0  0
   -1.5145    1.3476   -0.7472 H   0  0  0  0  0  0  0  0  0  0  0  0
    0.2864    0.4373   -2.2158 H   0  0  0  0  0  0  0  0  0  0  0  0
    0.0619   -1.1663   -1.5253 H   0  0  0  0  0  0  0  0  0  0  0  0
    0.8822    1.3201    0.0735 H   0  0  0  0  0  0  0  0  0  0  0  0
    0.7581   -0.3201    0.7157 H   0  0  0  0  0  0  0  0  0  0  0  0
    2.5277   -1.0854   -0.8760 H   0  0  0  0  0  0  0  0  0  0  0  0
    2.6648    0.5561   -1.5117 H   0  0  0  0  0  0  0  0  0  0  0  0
    3.2106   -0.2663    1.4004 H   0  0  0  0  0  0  0  0  0  0  0  0
    3.3473    1.3859    0.7604 H   0  0  0  0  0  0  0  0  0  0  0  0
  1  2  1  0
  2  3  1  0
  3  4  1  0
  4  5  1  0
  5  6  1  0
  6  7  1  0
  7  8  1  0
  1  9  1  0
  1 10  1  0
  1 11  1  0
  2 12  1  0
  2 13  1  0
  3 14  1  0
  3 15  1  0
  4 16  1  0
  4 17  1  0
  5 18  1  0
  5 19  1  0
  6 20  1  0
  6 21  1  0
  7 22  1  0
  7 23  1  0
M  END
>  <Energy>  (10) 
-2.3254720278412897

>  <Real charge>  (10) 
0

>  <Mult>  (10) 
1

$$$$
mol_285 299
     RDKit          3D

 23 22  0  0  0  0  0  0  0  0999 V2000
   -3.4456    0.8561   -0.1660 C   0  0  0  0  0  0  0  0  0  0  0  0
   -2.0306    0.4906    0.2563 C   0  0  0  0  0  0  0  0  0  0  0  0
   -1.4458   -0.6007   -0.6412 C   0  0  0  0  0  0  0  0  0  0  0  0
   -0.0655   -1.0861   -0.1891 C   0  0  0  0  0  0  0  0  0  0  0  0
    1.0225   -0.0143   -0.2979 C   0  0  0  0  0  0  0  0  0  0  0  0
    2.3986   -0.5884    0.0561 C   0  0  0  0  0  0  0  0  0  0  0  0
    3.5086    0.4579    0.0496 C   0  0  0  0  0  0  0  0  0  0  0  0
    3.8215    1.0906   -1.5829 Cl  0  0  0  0  0  0  0  0  0  0  0  0
   -3.4639    1.2273   -1.1956 H   0  0  0  0  0  0  0  0  0  0  0  0
   -3.8446    1.6401    0.4852 H   0  0  0  0  0  0  0  0  0  0  0  0
   -4.1112   -0.0106   -0.1006 H   0  0  0  0  0  0  0  0  0  0  0  0
   -1.4098    1.3918    0.2145 H   0  0  0  0  0  0  0  0  0  0  0  0
   -2.0433    0.1499    1.2979 H   0  0  0  0  0  0  0  0  0  0  0  0
   -1.3881   -0.2390   -1.6751 H   0  0  0  0  0  0  0  0  0  0  0  0
   -2.1255   -1.4620   -0.6464 H   0  0  0  0  0  0  0  0  0  0  0  0
   -0.1246   -1.4511    0.8435 H   0  0  0  0  0  0  0  0  0  0  0  0
    0.2150   -1.9447   -0.8119 H   0  0  0  0  0  0  0  0  0  0  0  0
    0.7984    0.8173    0.3793 H   0  0  0  0  0  0  0  0  0  0  0  0
    1.0307    0.3875   -1.3172 H   0  0  0  0  0  0  0  0  0  0  0  0
    2.3510   -1.0289    1.0597 H   0  0  0  0  0  0  0  0  0  0  0  0
    2.6511   -1.4033   -0.6335 H   0  0  0  0  0  0  0  0  0  0  0  0
    3.2584    1.3039    0.6970 H   0  0  0  0  0  0  0  0  0  0  0  0
    4.4427    0.0165    0.4097 H   0  0  0  0  0  0  0  0  0  0  0  0
  1  2  1  0
  2  3  1  0
  3  4  1  0
  4  5  1  0
  5  6  1  0
  6  7  1  0
  7  8  1  0
  1  9  1  0
  1 10  1  0
  1 11  1  0
  2 12  1  0
  2 13  1  0
  3 14  1  0
  3 15  1  0
  4 16  1  0
  4 17  1  0
  5 18  1  0
  5 19  1  0
  6 20  1  0
  6 21  1  0
  7 22  1  0
  7 23  1  0
M  END
>  <Energy>  (11) 
-2.320805058419752

>  <Real charge>  (11) 
0

>  <Mult>  (11) 
1

$$$$
mol_285 188
     RDKit          3D

 23 22  0  0  0  0  0  0  0  0999 V2000
   -3.4996    0.4943   -0.1610 C   0  0  0  0  0  0  0  0  0  0  0  0
   -2.0148    0.6716    0.1184 C   0  0  0  0  0  0  0  0  0  0  0  0
   -1.4148   -0.5812    0.7578 C   0  0  0  0  0  0  0  0  0  0  0  0
    0.0518   -0.4143    1.1658 C   0  0  0  0  0  0  0  0  0  0  0  0
    0.9974   -0.2275   -0.0239 C   0  0  0  0  0  0  0  0  0  0  0  0
    2.4588   -0.1811    0.4353 C   0  0  0  0  0  0  0  0  0  0  0  0
    3.4506   -0.0741   -0.7187 C   0  0  0  0  0  0  0  0  0  0  0  0
    3.3243    1.4842   -1.5669 Cl  0  0  0  0  0  0  0  0  0  0  0  0
   -3.6726   -0.3432   -0.8444 H   0  0  0  0  0  0  0  0  0  0  0  0
   -3.9092    1.3989   -0.6213 H   0  0  0  0  0  0  0  0  0  0  0  0
   -4.0533    0.3037    0.7639 H   0  0  0  0  0  0  0  0  0  0  0  0
   -1.5068    0.8992   -0.8247 H   0  0  0  0  0  0  0  0  0  0  0  0
   -1.8746    1.5328    0.7818 H   0  0  0  0  0  0  0  0  0  0  0  0
   -1.5111   -1.4306    0.0707 H   0  0  0  0  0  0  0  0  0  0  0  0
   -1.9917   -0.8355    1.6558 H   0  0  0  0  0  0  0  0  0  0  0  0
    0.3531   -1.3083    1.7258 H   0  0  0  0  0  0  0  0  0  0  0  0
    0.1483    0.4355    1.8526 H   0  0  0  0  0  0  0  0  0  0  0  0
    0.8628   -1.0536   -0.7324 H   0  0  0  0  0  0  0  0  0  0  0  0
    0.7464    0.6984   -0.5509 H   0  0  0  0  0  0  0  0  0  0  0  0
    2.6845   -1.0981    0.9937 H   0  0  0  0  0  0  0  0  0  0  0  0
    2.6039    0.6546    1.1310 H   0  0  0  0  0  0  0  0  0  0  0  0
    3.2920   -0.8710   -1.4516 H   0  0  0  0  0  0  0  0  0  0  0  0
    4.4747   -0.1546   -0.3422 H   0  0  0  0  0  0  0  0  0  0  0  0
  1  2  1  0
  2  3  1  0
  3  4  1  0
  4  5  1  0
  5  6  1  0
  6  7  1  0
  7  8  1  0
  1  9  1  0
  1 10  1  0
  1 11  1  0
  2 12  1  0
  2 13  1  0
  3 14  1  0
  3 15  1  0
  4 16  1  0
  4 17  1  0
  5 18  1  0
  5 19  1  0
  6 20  1  0
  6 21  1  0
  7 22  1  0
  7 23  1  0
M  END
>  <Energy>  (12) 
-2.3098255072207667

>  <Real charge>  (12) 
0

>  <Mult>  (12) 
1

$$$$
