mol_1082 98
     RDKit          3D

 11 10  0  0  0  0  0  0  0  0999 V2000
   -1.6209    0.2248    0.5527 C   0  0  0  0  0  0  0  0  0  0  0  0
   -0.4116   -0.3266   -0.1310 C   0  0  0  0  0  0  0  0  0  0  0  0
    0.7652    0.3131   -0.1762 C   0  0  0  0  0  0  0  0  0  0  0  0
    1.9228   -0.2872   -0.8689 C   0  0  0  0  0  0  0  0  0  0  0  0
    3.0033    0.2868   -0.9174 O   0  0  0  0  0  0  0  0  0  0  0  0
   -1.9473   -0.4597    1.3415 H   0  0  0  0  0  0  0  0  0  0  0  0
   -2.4376    0.3356   -0.1671 H   0  0  0  0  0  0  0  0  0  0  0  0
   -1.4304    1.2027    1.0063 H   0  0  0  0  0  0  0  0  0  0  0  0
   -0.5338   -1.2987   -0.6038 H   0  0  0  0  0  0  0  0  0  0  0  0
    0.9318    1.2820    0.2804 H   0  0  0  0  0  0  0  0  0  0  0  0
    1.7584   -1.2727   -1.3350 H   0  0  0  0  0  0  0  0  0  0  0  0
  1  2  1  0
  2  3  2  3
  3  4  1  0
  4  5  2  0
  1  6  1  0
  1  7  1  0
  1  8  1  0
  2  9  1  0
  3 10  1  0
  4 11  1  0
M  END
>  <Energy>  (1) 
7.461549308601725

>  <Real charge>  (1) 
0

>  <Mult>  (1) 
1

$$$$
