mol_754 168
     RDKit          3D

 24 24  0  0  0  0  0  0  0  0999 V2000
    0.0805   -2.3422    0.0810 C   0  0  0  0  0  0  0  0  0  0  0  0
    0.2047   -0.8699   -0.3213 C   0  0  0  0  0  0  0  0  0  0  0  0
    1.6044   -0.3553    0.0569 C   0  0  0  0  0  0  0  0  0  0  0  0
    1.7914    1.1142   -0.3047 C   0  0  0  0  0  0  0  0  0  0  0  0
    0.7105    1.9834    0.3239 C   0  0  0  0  0  0  0  0  0  0  0  0
   -0.6846    1.4942   -0.0499 C   0  0  0  0  0  0  0  0  0  0  0  0
   -0.8954    0.0147    0.3161 C   0  0  0  0  0  0  0  0  0  0  0  0
   -2.3062   -0.4134   -0.0981 C   0  0  0  0  0  0  0  0  0  0  0  0
    0.9139   -2.9269   -0.3235 H   0  0  0  0  0  0  0  0  0  0  0  0
    0.0843   -2.4575    1.1701 H   0  0  0  0  0  0  0  0  0  0  0  0
   -0.8409   -2.7861   -0.3075 H   0  0  0  0  0  0  0  0  0  0  0  0
    0.1085   -0.8145   -1.4145 H   0  0  0  0  0  0  0  0  0  0  0  0
    1.7697   -0.4860    1.1342 H   0  0  0  0  0  0  0  0  0  0  0  0
    2.3714   -0.9490   -0.4551 H   0  0  0  0  0  0  0  0  0  0  0  0
    1.7668    1.2288   -1.3954 H   0  0  0  0  0  0  0  0  0  0  0  0
    2.7783    1.4534    0.0298 H   0  0  0  0  0  0  0  0  0  0  0  0
    0.8211    1.9752    1.4152 H   0  0  0  0  0  0  0  0  0  0  0  0
    0.8366    3.0220   -0.0021 H   0  0  0  0  0  0  0  0  0  0  0  0
   -0.8406    1.6363   -1.1271 H   0  0  0  0  0  0  0  0  0  0  0  0
   -1.4294    2.1153    0.4623 H   0  0  0  0  0  0  0  0  0  0  0  0
   -0.8277   -0.0758    1.4090 H   0  0  0  0  0  0  0  0  0  0  0  0
   -2.5486   -1.4104    0.2815 H   0  0  0  0  0  0  0  0  0  0  0  0
   -2.4131   -0.4258   -1.1879 H   0  0  0  0  0  0  0  0  0  0  0  0
   -3.0555    0.2754    0.3071 H   0  0  0  0  0  0  0  0  0  0  0  0
  1  2  1  0
  2  3  1  0
  3  4  1  0
  4  5  1  0
  5  6  1  0
  6  7  1  0
  7  8  1  0
  7  2  1  0
  1  9  1  0
  1 10  1  0
  1 11  1  0
  2 12  1  0
  3 13  1  0
  3 14  1  0
  4 15  1  0
  4 16  1  0
  5 17  1  0
  5 18  1  0
  6 19  1  0
  6 20  1  0
  7 21  1  0
  8 22  1  0
  8 23  1  0
  8 24  1  0
M  END
>  <Energy>  (1) 
6.204584679845895

>  <Real charge>  (1) 
0

>  <Mult>  (1) 
1

$$$$
