mol_1018 322
     RDKit          3D

 24 24  0  0  0  0  0  0  0  0999 V2000
   -2.4176    2.3909   -0.8489 C   0  0  0  0  0  0  0  0  0  0  0  0
   -1.3469    1.6780   -0.2613 O   0  0  0  0  0  0  0  0  0  0  0  0
   -1.4314    0.0598   -0.2223 P   0  0  0  0  0  5  0  0  0  0  0  0
   -1.5352   -0.8369   -1.9399 S   0  0  0  0  0  0  0  0  0  0  0  0
   -2.6865   -0.1550    0.7797 O   0  0  0  0  0  0  0  0  0  0  0  0
   -2.9493   -1.4633    1.2490 C   0  0  0  0  0  0  0  0  0  0  0  0
   -0.1826   -0.3060    0.7476 O   0  0  0  0  0  0  0  0  0  0  0  0
    1.1029   -0.3152    0.2787 C   0  0  0  0  0  0  0  0  0  0  0  0
    1.7336    0.8825   -0.0550 C   0  0  0  0  0  0  0  0  0  0  0  0
    3.0525    0.8678   -0.5203 C   0  0  0  0  0  0  0  0  0  0  0  0
    3.7706    2.3868   -0.9217 Cl  0  0  0  0  0  0  0  0  0  0  0  0
    3.7382   -0.3482   -0.6392 C   0  0  0  0  0  0  0  0  0  0  0  0
    5.5291   -0.4574   -1.2623 Br  0  0  0  0  0  0  0  0  0  0  0  0
    3.1067   -1.5457   -0.2858 C   0  0  0  0  0  0  0  0  0  0  0  0
    1.7919   -1.5266    0.1789 C   0  0  0  0  0  0  0  0  0  0  0  0
    1.0423   -3.0166    0.6191 Cl  0  0  0  0  0  0  0  0  0  0  0  0
   -2.3123    3.4484   -0.5934 H   0  0  0  0  0  0  0  0  0  0  0  0
   -3.3794    2.0342   -0.4711 H   0  0  0  0  0  0  0  0  0  0  0  0
   -2.3831    2.2899   -1.9365 H   0  0  0  0  0  0  0  0  0  0  0  0
   -2.0515   -1.9040    1.6898 H   0  0  0  0  0  0  0  0  0  0  0  0
   -3.7245   -1.4073    2.0175 H   0  0  0  0  0  0  0  0  0  0  0  0
   -3.3122   -2.0924    0.4325 H   0  0  0  0  0  0  0  0  0  0  0  0
    1.2089    1.8284    0.0542 H   0  0  0  0  0  0  0  0  0  0  0  0
    3.6357   -2.4922   -0.3705 H   0  0  0  0  0  0  0  0  0  0  0  0
  1  2  1  0
  2  3  1  0
  3  4  2  0
  3  5  1  0
  5  6  1  0
  3  7  1  0
  7  8  1  0
  8  9  2  0
  9 10  1  0
 10 11  1  0
 10 12  2  0
 12 13  1  0
 12 14  1  0
 14 15  2  0
 15 16  1  0
 15  8  1  0
  1 17  1  0
  1 18  1  0
  1 19  1  0
  6 20  1  0
  6 21  1  0
  6 22  1  0
  9 23  1  0
 14 24  1  0
M  END
>  <Energy>  (1) 
-33.921855711782385

>  <Real charge>  (1) 
0

>  <Mult>  (1) 
1

$$$$
mol_1018 239
     RDKit          3D

 24 24  0  0  0  0  0  0  0  0999 V2000
   -2.8863   -1.6846   -1.2540 C   0  0  0  0  0  0  0  0  0  0  0  0
   -2.7226   -0.7544   -0.2011 O   0  0  0  0  0  0  0  0  0  0  0  0
   -1.4639    0.2640   -0.2651 P   0  0  0  0  0  5  0  0  0  0  0  0
   -1.4414    1.5032   -1.7573 S   0  0  0  0  0  0  0  0  0  0  0  0
   -1.5205    0.9110    1.2191 O   0  0  0  0  0  0  0  0  0  0  0  0
   -2.6394    1.7050    1.5619 C   0  0  0  0  0  0  0  0  0  0  0  0
   -0.2216   -0.7589   -0.1359 O   0  0  0  0  0  0  0  0  0  0  0  0
    1.1027   -0.4240   -0.0537 C   0  0  0  0  0  0  0  0  0  0  0  0
    1.5494    0.8135    0.4112 C   0  0  0  0  0  0  0  0  0  0  0  0
    2.9220    1.0867    0.4822 C   0  0  0  0  0  0  0  0  0  0  0  0
    3.3927    2.6418    1.0709 Cl  0  0  0  0  0  0  0  0  0  0  0  0
    3.8513    0.1163    0.0907 C   0  0  0  0  0  0  0  0  0  0  0  0
    5.7270    0.4050    0.1558 Br  0  0  0  0  0  0  0  0  0  0  0  0
    3.4074   -1.1265   -0.3672 C   0  0  0  0  0  0  0  0  0  0  0  0
    2.0390   -1.3939   -0.4349 C   0  0  0  0  0  0  0  0  0  0  0  0
    1.5351   -2.9431   -1.0109 Cl  0  0  0  0  0  0  0  0  0  0  0  0
   -3.6493   -2.4103   -0.9610 H   0  0  0  0  0  0  0  0  0  0  0  0
   -3.2210   -1.1724   -2.1594 H   0  0  0  0  0  0  0  0  0  0  0  0
   -1.9531   -2.2187   -1.4507 H   0  0  0  0  0  0  0  0  0  0  0  0
   -3.5726    1.1918    1.3158 H   0  0  0  0  0  0  0  0  0  0  0  0
   -2.6164    1.8912    2.6387 H   0  0  0  0  0  0  0  0  0  0  0  0
   -2.5925    2.6646    1.0410 H   0  0  0  0  0  0  0  0  0  0  0  0
    0.8519    1.5803    0.7354 H   0  0  0  0  0  0  0  0  0  0  0  0
    4.1222   -1.8875   -0.6716 H   0  0  0  0  0  0  0  0  0  0  0  0
  1  2  1  0
  2  3  1  0
  3  4  2  0
  3  5  1  0
  5  6  1  0
  3  7  1  0
  7  8  1  0
  8  9  2  0
  9 10  1  0
 10 11  1  0
 10 12  2  0
 12 13  1  0
 12 14  1  0
 14 15  2  0
 15 16  1  0
 15  8  1  0
  1 17  1  0
  1 18  1  0
  1 19  1  0
  6 20  1  0
  6 21  1  0
  6 22  1  0
  9 23  1  0
 14 24  1  0
M  END
>  <Energy>  (2) 
-33.67204263302516

>  <Real charge>  (2) 
0

>  <Mult>  (2) 
1

$$$$
mol_1018 183
     RDKit          3D

 24 24  0  0  0  0  0  0  0  0999 V2000
   -2.1994   -2.2352    0.6976 C   0  0  0  0  0  0  0  0  0  0  0  0
   -1.1653   -1.3477    0.3228 O   0  0  0  0  0  0  0  0  0  0  0  0
   -1.4850    0.2394    0.2905 P   0  0  0  0  0  5  0  0  0  0  0  0
   -1.9737    1.0537    1.9819 S   0  0  0  0  0  0  0  0  0  0  0  0
   -2.5963    0.3113   -0.8859 O   0  0  0  0  0  0  0  0  0  0  0  0
   -2.9900    1.5826   -1.3626 C   0  0  0  0  0  0  0  0  0  0  0  0
   -0.1799    0.8459   -0.4632 O   0  0  0  0  0  0  0  0  0  0  0  0
    1.0845    0.5036   -0.0671 C   0  0  0  0  0  0  0  0  0  0  0  0
    1.6624    1.1547    1.0219 C   0  0  0  0  0  0  0  0  0  0  0  0
    2.9616    0.8238    1.4205 C   0  0  0  0  0  0  0  0  0  0  0  0
    3.6142    1.6621    2.7823 Cl  0  0  0  0  0  0  0  0  0  0  0  0
    3.6815   -0.1506    0.7167 C   0  0  0  0  0  0  0  0  0  0  0  0
    5.4487   -0.6607    1.1906 Br  0  0  0  0  0  0  0  0  0  0  0  0
    3.1049   -0.7846   -0.3893 C   0  0  0  0  0  0  0  0  0  0  0  0
    1.8095   -0.4512   -0.7849 C   0  0  0  0  0  0  0  0  0  0  0  0
    1.1406   -1.2276   -2.1722 Cl  0  0  0  0  0  0  0  0  0  0  0  0
   -1.8728   -3.2571    0.4885 H   0  0  0  0  0  0  0  0  0  0  0  0
   -2.4028   -2.1462    1.7676 H   0  0  0  0  0  0  0  0  0  0  0  0
   -3.1101   -2.0360    0.1268 H   0  0  0  0  0  0  0  0  0  0  0  0
   -3.5805    1.4454   -2.2721 H   0  0  0  0  0  0  0  0  0  0  0  0
   -2.1174    2.1962   -1.6017 H   0  0  0  0  0  0  0  0  0  0  0  0
   -3.6089    2.0885   -0.6175 H   0  0  0  0  0  0  0  0  0  0  0  0
    1.1108    1.9231    1.5583 H   0  0  0  0  0  0  0  0  0  0  0  0
    3.6634   -1.5334   -0.9463 H   0  0  0  0  0  0  0  0  0  0  0  0
  1  2  1  0
  2  3  1  0
  3  4  2  0
  3  5  1  0
  5  6  1  0
  3  7  1  0
  7  8  1  0
  8  9  2  0
  9 10  1  0
 10 11  1  0
 10 12  2  0
 12 13  1  0
 12 14  1  0
 14 15  2  0
 15 16  1  0
 15  8  1  0
  1 17  1  0
  1 18  1  0
  1 19  1  0
  6 20  1  0
  6 21  1  0
  6 22  1  0
  9 23  1  0
 14 24  1  0
M  END
>  <Energy>  (3) 
-32.93139050197793

>  <Real charge>  (3) 
0

>  <Mult>  (3) 
1

$$$$
