mol_1086 392
     RDKit          3D

 33 34  0  0  0  0  0  0  0  0999 V2000
   -2.6946    2.7874   -1.0962 C   0  0  0  0  0  0  0  0  0  0  0  0
   -2.4533    1.9307    0.1301 C   0  0  0  0  0  0  0  0  0  0  0  0
   -1.9958    0.6559   -0.2911 O   0  0  0  0  0  0  0  0  0  0  0  0
   -1.1641   -0.2977    0.7259 P   0  0  0  0  0  5  0  0  0  0  0  0
   -1.6959   -0.2075    2.6010 S   0  0  0  0  0  0  0  0  0  0  0  0
   -1.4936   -1.7221    0.0145 O   0  0  0  0  0  0  0  0  0  0  0  0
   -2.8218   -2.2166    0.0332 C   0  0  0  0  0  0  0  0  0  0  0  0
   -2.9559   -3.2731   -1.0445 C   0  0  0  0  0  0  0  0  0  0  0  0
    0.4591   -0.0675    0.3783 N   0  0  0  0  0  0  0  0  0  0  0  0
    1.3912   -1.0436    0.5654 C   0  0  0  0  0  0  0  0  0  0  0  0
    1.2617   -2.1827    0.9679 O   0  0  0  0  0  0  0  0  0  0  0  0
    2.6847   -0.4685    0.2140 C   0  0  0  0  0  0  0  0  0  0  0  0
    3.9460   -1.0308    0.2000 C   0  0  0  0  0  0  0  0  0  0  0  0
    5.0085   -0.2044   -0.1789 C   0  0  0  0  0  0  0  0  0  0  0  0
    4.7871    1.1448   -0.5255 C   0  0  0  0  0  0  0  0  0  0  0  0
    3.4994    1.6898   -0.4988 C   0  0  0  0  0  0  0  0  0  0  0  0
    2.4676    0.8511   -0.1248 C   0  0  0  0  0  0  0  0  0  0  0  0
    1.0372    1.1068    0.0143 C   0  0  0  0  0  0  0  0  0  0  0  0
    0.5491    2.2061   -0.1565 O   0  0  0  0  0  0  0  0  0  0  0  0
   -1.7730    2.9034   -1.6757 H   0  0  0  0  0  0  0  0  0  0  0  0
   -3.4281    2.3150   -1.7580 H   0  0  0  0  0  0  0  0  0  0  0  0
   -3.0613    3.7782   -0.8139 H   0  0  0  0  0  0  0  0  0  0  0  0
   -3.3922    1.8011    0.6776 H   0  0  0  0  0  0  0  0  0  0  0  0
   -1.7285    2.4117    0.7922 H   0  0  0  0  0  0  0  0  0  0  0  0
   -3.0268   -2.6580    1.0130 H   0  0  0  0  0  0  0  0  0  0  0  0
   -3.5357   -1.4073   -0.1483 H   0  0  0  0  0  0  0  0  0  0  0  0
   -2.2406   -4.0857   -0.8796 H   0  0  0  0  0  0  0  0  0  0  0  0
   -2.7344   -2.8487   -2.0293 H   0  0  0  0  0  0  0  0  0  0  0  0
   -3.9668   -3.6901   -1.0589 H   0  0  0  0  0  0  0  0  0  0  0  0
    4.1024   -2.0694    0.4740 H   0  0  0  0  0  0  0  0  0  0  0  0
    6.0208   -0.6050   -0.2044 H   0  0  0  0  0  0  0  0  0  0  0  0
    5.6314    1.7689   -0.8143 H   0  0  0  0  0  0  0  0  0  0  0  0
    3.3162    2.7276   -0.7583 H   0  0  0  0  0  0  0  0  0  0  0  0
  1  2  1  0
  2  3  1  0
  3  4  1  0
  4  5  2  0
  4  6  1  0
  6  7  1  0
  7  8  1  0
  4  9  1  0
  9 10  1  0
 10 11  2  0
 10 12  1  0
 12 13  2  0
 13 14  1  0
 14 15  2  0
 15 16  1  0
 16 17  2  0
 17 18  1  0
 18 19  2  0
 17 12  1  0
 18  9  1  0
  1 20  1  0
  1 21  1  0
  1 22  1  0
  2 23  1  0
  2 24  1  0
  7 25  1  0
  7 26  1  0
  8 27  1  0
  8 28  1  0
  8 29  1  0
 13 30  1  0
 14 31  1  0
 15 32  1  0
 16 33  1  0
M  END
>  <Energy>  (1) 
-125.73547511519538

>  <Real charge>  (1) 
0

>  <Mult>  (1) 
1

$$$$
mol_1086 59
     RDKit          3D

 33 34  0  0  0  0  0  0  0  0999 V2000
   -2.7689   -2.3602   -0.7957 C   0  0  0  0  0  0  0  0  0  0  0  0
   -2.2137   -0.9701   -0.5634 C   0  0  0  0  0  0  0  0  0  0  0  0
   -1.9941   -0.7965    0.8257 O   0  0  0  0  0  0  0  0  0  0  0  0
   -0.9572    0.3338    1.3553 P   0  0  0  0  0  5  0  0  0  0  0  0
   -1.0022    0.5435    3.2905 S   0  0  0  0  0  0  0  0  0  0  0  0
   -1.4913    1.6156    0.5128 O   0  0  0  0  0  0  0  0  0  0  0  0
   -2.7201    2.2227    0.8790 C   0  0  0  0  0  0  0  0  0  0  0  0
   -3.2038    3.0665   -0.2827 C   0  0  0  0  0  0  0  0  0  0  0  0
    0.5382   -0.0264    0.6926 N   0  0  0  0  0  0  0  0  0  0  0  0
    1.0408   -1.2834    0.5656 C   0  0  0  0  0  0  0  0  0  0  0  0
    0.5199   -2.3581    0.7871 O   0  0  0  0  0  0  0  0  0  0  0  0
    2.4111   -1.1439    0.0832 C   0  0  0  0  0  0  0  0  0  0  0  0
    3.3537   -2.1010   -0.2371 C   0  0  0  0  0  0  0  0  0  0  0  0
    4.6029   -1.6456   -0.6705 C   0  0  0  0  0  0  0  0  0  0  0  0
    4.8755   -0.2650   -0.7684 C   0  0  0  0  0  0  0  0  0  0  0  0
    3.9035    0.6834   -0.4345 C   0  0  0  0  0  0  0  0  0  0  0  0
    2.6777    0.2072   -0.0132 C   0  0  0  0  0  0  0  0  0  0  0  0
    1.4763    0.9186    0.4118 C   0  0  0  0  0  0  0  0  0  0  0  0
    1.4142    2.1291    0.4932 O   0  0  0  0  0  0  0  0  0  0  0  0
   -2.9660   -2.5291   -1.8580 H   0  0  0  0  0  0  0  0  0  0  0  0
   -3.6997   -2.5024   -0.2366 H   0  0  0  0  0  0  0  0  0  0  0  0
   -2.0657   -3.1211   -0.4418 H   0  0  0  0  0  0  0  0  0  0  0  0
   -2.9344   -0.2215   -0.9050 H   0  0  0  0  0  0  0  0  0  0  0  0
   -1.2844   -0.8390   -1.1248 H   0  0  0  0  0  0  0  0  0  0  0  0
   -3.4652    1.4585    1.1213 H   0  0  0  0  0  0  0  0  0  0  0  0
   -2.5600    2.8572    1.7558 H   0  0  0  0  0  0  0  0  0  0  0  0
   -2.4615    3.8289   -0.5412 H   0  0  0  0  0  0  0  0  0  0  0  0
   -4.1481    3.5613   -0.0393 H   0  0  0  0  0  0  0  0  0  0  0  0
   -3.3485    2.4481   -1.1747 H   0  0  0  0  0  0  0  0  0  0  0  0
    3.1331   -3.1603   -0.1513 H   0  0  0  0  0  0  0  0  0  0  0  0
    5.3781   -2.3642   -0.9323 H   0  0  0  0  0  0  0  0  0  0  0  0
    5.8576    0.0644   -1.1044 H   0  0  0  0  0  0  0  0  0  0  0  0
    4.1022    1.7486   -0.4991 H   0  0  0  0  0  0  0  0  0  0  0  0
  1  2  1  0
  2  3  1  0
  3  4  1  0
  4  5  2  0
  4  6  1  0
  6  7  1  0
  7  8  1  0
  4  9  1  0
  9 10  1  0
 10 11  2  0
 10 12  1  0
 12 13  2  0
 13 14  1  0
 14 15  2  0
 15 16  1  0
 16 17  2  0
 17 18  1  0
 18 19  2  0
 17 12  1  0
 18  9  1  0
  1 20  1  0
  1 21  1  0
  1 22  1  0
  2 23  1  0
  2 24  1  0
  7 25  1  0
  7 26  1  0
  8 27  1  0
  8 28  1  0
  8 29  1  0
 13 30  1  0
 14 31  1  0
 15 32  1  0
 16 33  1  0
M  END
>  <Energy>  (2) 
-125.47209234178224

>  <Real charge>  (2) 
0

>  <Mult>  (2) 
1

$$$$
mol_1086 214
     RDKit          3D

 33 34  0  0  0  0  0  0  0  0999 V2000
   -3.0504    3.0097   -0.5868 C   0  0  0  0  0  0  0  0  0  0  0  0
   -1.6364    2.4682   -0.6597 C   0  0  0  0  0  0  0  0  0  0  0  0
   -1.6843    1.0529   -0.5913 O   0  0  0  0  0  0  0  0  0  0  0  0
   -1.0050    0.2389    0.6375 P   0  0  0  0  0  5  0  0  0  0  0  0
   -1.3393    0.9558    2.4207 S   0  0  0  0  0  0  0  0  0  0  0  0
   -1.7209   -1.1957    0.3667 O   0  0  0  0  0  0  0  0  0  0  0  0
   -3.1211   -1.3197    0.5502 C   0  0  0  0  0  0  0  0  0  0  0  0
   -3.5953   -2.5520   -0.1928 C   0  0  0  0  0  0  0  0  0  0  0  0
    0.5920   -0.0429    0.2116 N   0  0  0  0  0  0  0  0  0  0  0  0
    1.4226    0.8534   -0.3823 C   0  0  0  0  0  0  0  0  0  0  0  0
    1.2154    1.9909   -0.7555 O   0  0  0  0  0  0  0  0  0  0  0  0
    2.7322    0.2174   -0.4861 C   0  0  0  0  0  0  0  0  0  0  0  0
    3.9139    0.6744   -1.0360 C   0  0  0  0  0  0  0  0  0  0  0  0
    5.0214   -0.1766   -0.9662 C   0  0  0  0  0  0  0  0  0  0  0  0
    4.9226   -1.4429   -0.3528 C   0  0  0  0  0  0  0  0  0  0  0  0
    3.7147   -1.8788    0.2008 C   0  0  0  0  0  0  0  0  0  0  0  0
    2.6359   -1.0210    0.1137 C   0  0  0  0  0  0  0  0  0  0  0  0
    1.2661   -1.1638    0.5944 C   0  0  0  0  0  0  0  0  0  0  0  0
    0.8916   -2.1230    1.2392 O   0  0  0  0  0  0  0  0  0  0  0  0
   -3.0543    4.1005   -0.6645 H   0  0  0  0  0  0  0  0  0  0  0  0
   -3.5296    2.7213    0.3541 H   0  0  0  0  0  0  0  0  0  0  0  0
   -3.6633    2.5961   -1.3945 H   0  0  0  0  0  0  0  0  0  0  0  0
   -1.1882    2.7451   -1.6188 H   0  0  0  0  0  0  0  0  0  0  0  0
   -1.0236    2.8950    0.1386 H   0  0  0  0  0  0  0  0  0  0  0  0
   -3.6392   -0.4339    0.1701 H   0  0  0  0  0  0  0  0  0  0  0  0
   -3.3349   -1.4251    1.6179 H   0  0  0  0  0  0  0  0  0  0  0  0
   -3.3699   -2.4679   -1.2611 H   0  0  0  0  0  0  0  0  0  0  0  0
   -4.6728   -2.6920   -0.0692 H   0  0  0  0  0  0  0  0  0  0  0  0
   -3.0784   -3.4457    0.1723 H   0  0  0  0  0  0  0  0  0  0  0  0
    3.9784    1.6537   -1.4996 H   0  0  0  0  0  0  0  0  0  0  0  0
    5.9742    0.1416   -1.3866 H   0  0  0  0  0  0  0  0  0  0  0  0
    5.8000   -2.0862   -0.3072 H   0  0  0  0  0  0  0  0  0  0  0  0
    3.6258   -2.8480    0.6816 H   0  0  0  0  0  0  0  0  0  0  0  0
  1  2  1  0
  2  3  1  0
  3  4  1  0
  4  5  2  0
  4  6  1  0
  6  7  1  0
  7  8  1  0
  4  9  1  0
  9 10  1  0
 10 11  2  0
 10 12  1  0
 12 13  2  0
 13 14  1  0
 14 15  2  0
 15 16  1  0
 16 17  2  0
 17 18  1  0
 18 19  2  0
 17 12  1  0
 18  9  1  0
  1 20  1  0
  1 21  1  0
  1 22  1  0
  2 23  1  0
  2 24  1  0
  7 25  1  0
  7 26  1  0
  8 27  1  0
  8 28  1  0
  8 29  1  0
 13 30  1  0
 14 31  1  0
 15 32  1  0
 16 33  1  0
M  END
>  <Energy>  (3) 
-125.4665543834978

>  <Real charge>  (3) 
0

>  <Mult>  (3) 
1

$$$$
mol_1086 397
     RDKit          3D

 33 34  0  0  0  0  0  0  0  0999 V2000
   -4.0105   -0.7163   -1.3138 C   0  0  0  0  0  0  0  0  0  0  0  0
   -3.2583   -1.2487   -0.1113 C   0  0  0  0  0  0  0  0  0  0  0  0
   -1.8777   -0.9768   -0.2895 O   0  0  0  0  0  0  0  0  0  0  0  0
   -0.9054   -0.9214    1.0101 P   0  0  0  0  0  5  0  0  0  0  0  0
   -1.0527   -2.4566    2.1980 S   0  0  0  0  0  0  0  0  0  0  0  0
   -1.4409    0.4529    1.6871 O   0  0  0  0  0  0  0  0  0  0  0  0
   -1.4134    1.6694    0.9604 C   0  0  0  0  0  0  0  0  0  0  0  0
   -2.6695    2.4537    1.2798 C   0  0  0  0  0  0  0  0  0  0  0  0
    0.6222   -0.6035    0.4008 N   0  0  0  0  0  0  0  0  0  0  0  0
    1.5834    0.0853    1.0722 C   0  0  0  0  0  0  0  0  0  0  0  0
    1.5227    0.6744    2.1327 O   0  0  0  0  0  0  0  0  0  0  0  0
    2.8002    0.0046    0.2707 C   0  0  0  0  0  0  0  0  0  0  0  0
    4.0509    0.5526    0.4763 C   0  0  0  0  0  0  0  0  0  0  0  0
    5.0313    0.2815   -0.4834 C   0  0  0  0  0  0  0  0  0  0  0  0
    4.7419   -0.5221   -1.6061 C   0  0  0  0  0  0  0  0  0  0  0  0
    3.4673   -1.0680   -1.7879 C   0  0  0  0  0  0  0  0  0  0  0  0
    2.5167   -0.7813   -0.8282 C   0  0  0  0  0  0  0  0  0  0  0  0
    1.1224   -1.1982   -0.7164 C   0  0  0  0  0  0  0  0  0  0  0  0
    0.5924   -1.9569   -1.5032 O   0  0  0  0  0  0  0  0  0  0  0  0
   -3.8569    0.3630   -1.4169 H   0  0  0  0  0  0  0  0  0  0  0  0
   -5.0823   -0.9133   -1.2225 H   0  0  0  0  0  0  0  0  0  0  0  0
   -3.6429   -1.1796   -2.2353 H   0  0  0  0  0  0  0  0  0  0  0  0
   -3.6300   -0.7719    0.8009 H   0  0  0  0  0  0  0  0  0  0  0  0
   -3.4010   -2.3304   -0.0312 H   0  0  0  0  0  0  0  0  0  0  0  0
   -1.3487    1.4879   -0.1167 H   0  0  0  0  0  0  0  0  0  0  0  0
   -0.5321    2.2402    1.2663 H   0  0  0  0  0  0  0  0  0  0  0  0
   -2.7441    2.6421    2.3558 H   0  0  0  0  0  0  0  0  0  0  0  0
   -3.5616    1.8876    0.9929 H   0  0  0  0  0  0  0  0  0  0  0  0
   -2.6758    3.4117    0.7524 H   0  0  0  0  0  0  0  0  0  0  0  0
    4.2625    1.1634    1.3483 H   0  0  0  0  0  0  0  0  0  0  0  0
    6.0330    0.6910   -0.3621 H   0  0  0  0  0  0  0  0  0  0  0  0
    5.5239   -0.7226   -2.3370 H   0  0  0  0  0  0  0  0  0  0  0  0
    3.2333   -1.6938   -2.6435 H   0  0  0  0  0  0  0  0  0  0  0  0
  1  2  1  0
  2  3  1  0
  3  4  1  0
  4  5  2  0
  4  6  1  0
  6  7  1  0
  7  8  1  0
  4  9  1  0
  9 10  1  0
 10 11  2  0
 10 12  1  0
 12 13  2  0
 13 14  1  0
 14 15  2  0
 15 16  1  0
 16 17  2  0
 17 18  1  0
 18 19  2  0
 17 12  1  0
 18  9  1  0
  1 20  1  0
  1 21  1  0
  1 22  1  0
  2 23  1  0
  2 24  1  0
  7 25  1  0
  7 26  1  0
  8 27  1  0
  8 28  1  0
  8 29  1  0
 13 30  1  0
 14 31  1  0
 15 32  1  0
 16 33  1  0
M  END
>  <Energy>  (4) 
-125.30998696646485

>  <Real charge>  (4) 
0

>  <Mult>  (4) 
1

$$$$
