mol_50 113
     RDKit          3D

 23 24  0  0  0  0  0  0  0  0999 V2000
    2.3861   -0.9814    0.0345 C   0  0  0  0  0  0  0  0  0  0  0  0
    2.3351    0.4126   -0.0065 C   0  0  0  0  0  0  0  0  0  0  0  0
    3.5959    1.2244   -0.0240 C   0  0  0  0  0  0  0  0  0  0  0  0
    1.0844    1.0452   -0.0892 C   0  0  0  0  0  0  0  0  0  0  0  0
   -0.1071    0.3305   -0.1071 C   0  0  0  0  0  0  0  0  0  0  0  0
   -1.2765    0.9927   -0.1788 N   0  0  0  0  0  0  0  0  0  0  0  0
   -2.4276    0.2793   -0.1949 C   0  0  0  0  0  0  0  0  0  0  0  0
   -3.7105    1.0510   -0.2746 C   0  0  0  0  0  0  0  0  0  0  0  0
   -2.4514   -1.1078   -0.1412 C   0  0  0  0  0  0  0  0  0  0  0  0
   -1.2426   -1.7908   -0.0685 C   0  0  0  0  0  0  0  0  0  0  0  0
   -0.0397   -1.0756   -0.0503 C   0  0  0  0  0  0  0  0  0  0  0  0
    1.2055   -1.7231    0.0184 C   0  0  0  0  0  0  0  0  0  0  0  0
    3.3420   -1.4982    0.0802 H   0  0  0  0  0  0  0  0  0  0  0  0
    3.9152    1.3974   -1.0563 H   0  0  0  0  0  0  0  0  0  0  0  0
    4.3998    0.7102    0.5133 H   0  0  0  0  0  0  0  0  0  0  0  0
    3.4442    2.1912    0.4674 H   0  0  0  0  0  0  0  0  0  0  0  0
    1.0294    2.1307   -0.1403 H   0  0  0  0  0  0  0  0  0  0  0  0
   -3.5163    2.1279   -0.3094 H   0  0  0  0  0  0  0  0  0  0  0  0
   -4.2623    0.7750   -1.1785 H   0  0  0  0  0  0  0  0  0  0  0  0
   -4.3309    0.8450    0.6032 H   0  0  0  0  0  0  0  0  0  0  0  0
   -3.3902   -1.6511   -0.1560 H   0  0  0  0  0  0  0  0  0  0  0  0
   -1.2443   -2.8766   -0.0269 H   0  0  0  0  0  0  0  0  0  0  0  0
    1.2617   -2.8084    0.0565 H   0  0  0  0  0  0  0  0  0  0  0  0
  1  2  2  0
  2  3  1  0
  2  4  1  0
  4  5  2  0
  5  6  1  0
  6  7  2  0
  7  8  1  0
  7  9  1  0
  9 10  2  0
 10 11  1  0
 11 12  2  0
 11  5  1  0
 12  1  1  0
  1 13  1  0
  3 14  1  0
  3 15  1  0
  3 16  1  0
  4 17  1  0
  8 18  1  0
  8 19  1  0
  8 20  1  0
  9 21  1  0
 10 22  1  0
 12 23  1  0
M  END
>  <Energy>  (1) 
36.931415090988224

>  <Real charge>  (1) 
0

>  <Mult>  (1) 
1

$$$$
