mol_224 282
     RDKit          3D

 31 31  0  0  0  0  0  0  0  0999 V2000
    5.0675    0.7553    1.5405 C   0  0  0  0  0  0  0  0  0  0  0  0
    4.4575   -0.1220    0.5798 N   0  0  0  0  0  0  0  0  0  0  0  0
    3.2303    0.1405    0.0348 C   0  0  0  0  0  0  0  0  0  0  0  0
    2.5931    1.1676    0.2234 O   0  0  0  0  0  0  0  0  0  0  0  0
    2.8407   -0.9396   -0.7410 O   0  0  0  0  0  0  0  0  0  0  0  0
    1.5795   -0.8024   -1.3297 C   0  0  0  0  0  0  0  0  0  0  0  0
    1.5141   -0.6378   -2.7119 C   0  0  0  0  0  0  0  0  0  0  0  0
    0.2671   -0.5555   -3.3281 C   0  0  0  0  0  0  0  0  0  0  0  0
   -0.8965   -0.6446   -2.5585 C   0  0  0  0  0  0  0  0  0  0  0  0
   -0.8246   -0.8128   -1.1712 C   0  0  0  0  0  0  0  0  0  0  0  0
   -2.0018   -0.9135   -0.4170 N   0  0  0  0  0  0  0  0  0  0  0  0
   -2.3896    0.1770    0.1596 C   0  0  0  0  0  0  0  0  0  0  0  0
   -3.5087    0.3252    0.9493 N   0  0  0  0  0  0  0  0  0  0  0  0
   -4.2343   -0.8618    1.3794 C   0  0  0  0  0  0  0  0  0  0  0  0
   -3.6490    1.5016    1.7916 C   0  0  0  0  0  0  0  0  0  0  0  0
    0.4244   -0.9151   -0.5568 C   0  0  0  0  0  0  0  0  0  0  0  0
    4.8795    1.8001    1.2790 H   0  0  0  0  0  0  0  0  0  0  0  0
    6.1425    0.5617    1.5554 H   0  0  0  0  0  0  0  0  0  0  0  0
    4.6410    0.5450    2.5248 H   0  0  0  0  0  0  0  0  0  0  0  0
    4.8110   -1.0593    0.4484 H   0  0  0  0  0  0  0  0  0  0  0  0
    2.4227   -0.5757   -3.3028 H   0  0  0  0  0  0  0  0  0  0  0  0
    0.1964   -0.4267   -4.4046 H   0  0  0  0  0  0  0  0  0  0  0  0
   -1.8705   -0.5867   -3.0373 H   0  0  0  0  0  0  0  0  0  0  0  0
   -1.8199    1.1211    0.0535 H   0  0  0  0  0  0  0  0  0  0  0  0
   -4.4211   -1.5362    0.5368 H   0  0  0  0  0  0  0  0  0  0  0  0
   -5.2102   -0.5967    1.8001 H   0  0  0  0  0  0  0  0  0  0  0  0
   -3.6650   -1.4015    2.1434 H   0  0  0  0  0  0  0  0  0  0  0  0
   -4.6885    1.6387    2.1074 H   0  0  0  0  0  0  0  0  0  0  0  0
   -3.3519    2.4074    1.2522 H   0  0  0  0  0  0  0  0  0  0  0  0
   -3.0232    1.4072    2.6851 H   0  0  0  0  0  0  0  0  0  0  0  0
    0.4875   -1.0728    0.5144 H   0  0  0  0  0  0  0  0  0  0  0  0
  1  2  1  0
  2  3  1  0
  3  4  2  0
  3  5  1  0
  5  6  1  0
  6  7  2  0
  7  8  1  0
  8  9  2  0
  9 10  1  0
 10 11  1  0
 11 12  2  3
 12 13  1  0
 13 14  1  0
 13 15  1  0
 10 16  2  0
 16  6  1  0
  1 17  1  0
  1 18  1  0
  1 19  1  0
  2 20  1  0
  7 21  1  0
  8 22  1  0
  9 23  1  0
 12 24  1  0
 14 25  1  0
 14 26  1  0
 14 27  1  0
 15 28  1  0
 15 29  1  0
 15 30  1  0
 16 31  1  0
M  END
>  <Energy>  (1) 
-50.69032217532802

>  <Real charge>  (1) 
0

>  <Mult>  (1) 
1

$$$$
mol_224 44
     RDKit          3D

 31 31  0  0  0  0  0  0  0  0999 V2000
    5.0283    1.9807   -0.1386 C   0  0  0  0  0  0  0  0  0  0  0  0
    4.3164    0.9008   -0.7646 N   0  0  0  0  0  0  0  0  0  0  0  0
    3.1765    0.3724   -0.2234 C   0  0  0  0  0  0  0  0  0  0  0  0
    2.6077    0.8162    0.7647 O   0  0  0  0  0  0  0  0  0  0  0  0
    2.7974   -0.7365   -0.9629 O   0  0  0  0  0  0  0  0  0  0  0  0
    1.6224   -1.3514   -0.5187 C   0  0  0  0  0  0  0  0  0  0  0  0
    1.7214   -2.6101    0.0709 C   0  0  0  0  0  0  0  0  0  0  0  0
    0.5591   -3.2664    0.4708 C   0  0  0  0  0  0  0  0  0  0  0  0
   -0.6853   -2.6612    0.2717 C   0  0  0  0  0  0  0  0  0  0  0  0
   -0.7788   -1.3984   -0.3238 C   0  0  0  0  0  0  0  0  0  0  0  0
   -2.0363   -0.8137   -0.5276 N   0  0  0  0  0  0  0  0  0  0  0  0
   -2.3944    0.0615    0.3543 C   0  0  0  0  0  0  0  0  0  0  0  0
   -3.5776    0.7673    0.3651 N   0  0  0  0  0  0  0  0  0  0  0  0
   -4.4402    0.7213   -0.8073 C   0  0  0  0  0  0  0  0  0  0  0  0
   -3.7118    1.9406    1.2127 C   0  0  0  0  0  0  0  0  0  0  0  0
    0.3843   -0.7501   -0.7423 C   0  0  0  0  0  0  0  0  0  0  0  0
    4.3290    2.7001    0.2958 H   0  0  0  0  0  0  0  0  0  0  0  0
    5.6625    1.5687    0.6507 H   0  0  0  0  0  0  0  0  0  0  0  0
    5.6489    2.4713   -0.8918 H   0  0  0  0  0  0  0  0  0  0  0  0
    4.7491    0.3646   -1.5036 H   0  0  0  0  0  0  0  0  0  0  0  0
    2.6911   -3.0758    0.2161 H   0  0  0  0  0  0  0  0  0  0  0  0
    0.6164   -4.2481    0.9326 H   0  0  0  0  0  0  0  0  0  0  0  0
   -1.5939   -3.1733    0.5773 H   0  0  0  0  0  0  0  0  0  0  0  0
   -1.7410    0.3200    1.2106 H   0  0  0  0  0  0  0  0  0  0  0  0
   -4.5881   -0.3094   -1.1473 H   0  0  0  0  0  0  0  0  0  0  0  0
   -4.0036    1.3032   -1.6257 H   0  0  0  0  0  0  0  0  0  0  0  0
   -5.4313    1.1304   -0.5840 H   0  0  0  0  0  0  0  0  0  0  0  0
   -3.2843    1.7584    2.2045 H   0  0  0  0  0  0  0  0  0  0  0  0
   -4.7648    2.2042    1.3571 H   0  0  0  0  0  0  0  0  0  0  0  0
   -3.1971    2.7961    0.7634 H   0  0  0  0  0  0  0  0  0  0  0  0
    0.3180    0.2167   -1.2297 H   0  0  0  0  0  0  0  0  0  0  0  0
  1  2  1  0
  2  3  1  0
  3  4  2  0
  3  5  1  0
  5  6  1  0
  6  7  2  0
  7  8  1  0
  8  9  2  0
  9 10  1  0
 10 11  1  0
 11 12  2  3
 12 13  1  0
 13 14  1  0
 13 15  1  0
 10 16  2  0
 16  6  1  0
  1 17  1  0
  1 18  1  0
  1 19  1  0
  2 20  1  0
  7 21  1  0
  8 22  1  0
  9 23  1  0
 12 24  1  0
 14 25  1  0
 14 26  1  0
 14 27  1  0
 15 28  1  0
 15 29  1  0
 15 30  1  0
 16 31  1  0
M  END
>  <Energy>  (2) 
-50.671300554507525

>  <Real charge>  (2) 
0

>  <Mult>  (2) 
1

$$$$
mol_224 194
     RDKit          3D

 31 31  0  0  0  0  0  0  0  0999 V2000
    5.9959   -1.0926    1.2220 C   0  0  0  0  0  0  0  0  0  0  0  0
    4.7884   -0.3161    1.1590 N   0  0  0  0  0  0  0  0  0  0  0  0
    3.8369   -0.5373    0.2009 C   0  0  0  0  0  0  0  0  0  0  0  0
    3.9643   -1.3111   -0.7374 O   0  0  0  0  0  0  0  0  0  0  0  0
    2.7231    0.2406    0.4817 O   0  0  0  0  0  0  0  0  0  0  0  0
    1.6387    0.1505   -0.4048 C   0  0  0  0  0  0  0  0  0  0  0  0
    1.7783    0.4330   -1.7633 C   0  0  0  0  0  0  0  0  0  0  0  0
    0.6578    0.3727   -2.5904 C   0  0  0  0  0  0  0  0  0  0  0  0
   -0.5916    0.0569   -2.0494 C   0  0  0  0  0  0  0  0  0  0  0  0
   -0.7339   -0.1864   -0.6788 C   0  0  0  0  0  0  0  0  0  0  0  0
   -1.9895   -0.5027   -0.1424 N   0  0  0  0  0  0  0  0  0  0  0  0
   -2.7119    0.5018    0.2317 C   0  0  0  0  0  0  0  0  0  0  0  0
   -3.9710    0.4344    0.7860 N   0  0  0  0  0  0  0  0  0  0  0  0
   -4.6800   -0.8382    0.7796 C   0  0  0  0  0  0  0  0  0  0  0  0
   -4.7984    1.6271    0.8589 C   0  0  0  0  0  0  0  0  0  0  0  0
    0.3919   -0.1449    0.1449 C   0  0  0  0  0  0  0  0  0  0  0  0
    6.7344   -0.5409    1.8081 H   0  0  0  0  0  0  0  0  0  0  0  0
    6.3820   -1.2818    0.2168 H   0  0  0  0  0  0  0  0  0  0  0  0
    5.7733   -2.0449    1.7105 H   0  0  0  0  0  0  0  0  0  0  0  0
    4.4971    0.2371    1.9526 H   0  0  0  0  0  0  0  0  0  0  0  0
    2.7490    0.6810   -2.1826 H   0  0  0  0  0  0  0  0  0  0  0  0
    0.7561    0.5645   -3.6553 H   0  0  0  0  0  0  0  0  0  0  0  0
   -1.4628   -0.0031   -2.6959 H   0  0  0  0  0  0  0  0  0  0  0  0
   -2.3507    1.5436    0.1289 H   0  0  0  0  0  0  0  0  0  0  0  0
   -4.0366   -1.6493    1.1373 H   0  0  0  0  0  0  0  0  0  0  0  0
   -5.0221   -1.0794   -0.2322 H   0  0  0  0  0  0  0  0  0  0  0  0
   -5.5531   -0.8067    1.4402 H   0  0  0  0  0  0  0  0  0  0  0  0
   -4.2084    2.4945    1.1738 H   0  0  0  0  0  0  0  0  0  0  0  0
   -5.6062    1.5027    1.5877 H   0  0  0  0  0  0  0  0  0  0  0  0
   -5.2414    1.8436   -0.1185 H   0  0  0  0  0  0  0  0  0  0  0  0
    0.2903   -0.3483    1.2058 H   0  0  0  0  0  0  0  0  0  0  0  0
  1  2  1  0
  2  3  1  0
  3  4  2  0
  3  5  1  0
  5  6  1  0
  6  7  2  0
  7  8  1  0
  8  9  2  0
  9 10  1  0
 10 11  1  0
 11 12  2  3
 12 13  1  0
 13 14  1  0
 13 15  1  0
 10 16  2  0
 16  6  1  0
  1 17  1  0
  1 18  1  0
  1 19  1  0
  2 20  1  0
  7 21  1  0
  8 22  1  0
  9 23  1  0
 12 24  1  0
 14 25  1  0
 14 26  1  0
 14 27  1  0
 15 28  1  0
 15 29  1  0
 15 30  1  0
 16 31  1  0
M  END
>  <Energy>  (3) 
-49.97247523845066

>  <Real charge>  (3) 
0

>  <Mult>  (3) 
1

$$$$
mol_224 238
     RDKit          3D

 31 31  0  0  0  0  0  0  0  0999 V2000
    6.0973    0.4947    0.3385 C   0  0  0  0  0  0  0  0  0  0  0  0
    4.7961   -0.0258    0.6562 N   0  0  0  0  0  0  0  0  0  0  0  0
    3.8043   -0.1133   -0.2824 C   0  0  0  0  0  0  0  0  0  0  0  0
    3.9528    0.1259   -1.4724 O   0  0  0  0  0  0  0  0  0  0  0  0
    2.6254   -0.4976    0.3397 O   0  0  0  0  0  0  0  0  0  0  0  0
    1.4937   -0.6503   -0.4762 C   0  0  0  0  0  0  0  0  0  0  0  0
    1.4810   -1.5413   -1.5490 C   0  0  0  0  0  0  0  0  0  0  0  0
    0.3149   -1.6884   -2.2984 C   0  0  0  0  0  0  0  0  0  0  0  0
   -0.8305   -0.9654   -1.9541 C   0  0  0  0  0  0  0  0  0  0  0  0
   -0.8248   -0.1025   -0.8524 C   0  0  0  0  0  0  0  0  0  0  0  0
   -1.9759    0.6207   -0.5115 N   0  0  0  0  0  0  0  0  0  0  0  0
   -2.8202    0.0096    0.2530 C   0  0  0  0  0  0  0  0  0  0  0  0
   -4.0160    0.5172    0.7104 N   0  0  0  0  0  0  0  0  0  0  0  0
   -4.3076    1.9308    0.5135 C   0  0  0  0  0  0  0  0  0  0  0  0
   -4.7112   -0.1333    1.8083 C   0  0  0  0  0  0  0  0  0  0  0  0
    0.3488    0.0587   -0.1148 C   0  0  0  0  0  0  0  0  0  0  0  0
    6.8033    0.1555    1.0999 H   0  0  0  0  0  0  0  0  0  0  0  0
    6.0468    1.5867    0.3420 H   0  0  0  0  0  0  0  0  0  0  0  0
    6.4172    0.1493   -0.6483 H   0  0  0  0  0  0  0  0  0  0  0  0
    4.5038   -0.1127    1.6193 H   0  0  0  0  0  0  0  0  0  0  0  0
    2.3708   -2.1047   -1.8143 H   0  0  0  0  0  0  0  0  0  0  0  0
    0.2974   -2.3591   -3.1530 H   0  0  0  0  0  0  0  0  0  0  0  0
   -1.7360   -1.0698   -2.5458 H   0  0  0  0  0  0  0  0  0  0  0  0
   -2.6328   -1.0204    0.6139 H   0  0  0  0  0  0  0  0  0  0  0  0
   -3.6975    2.5433    1.1854 H   0  0  0  0  0  0  0  0  0  0  0  0
   -4.1072    2.2340   -0.5197 H   0  0  0  0  0  0  0  0  0  0  0  0
   -5.3626    2.1476    0.7123 H   0  0  0  0  0  0  0  0  0  0  0  0
   -4.2417    0.1253    2.7629 H   0  0  0  0  0  0  0  0  0  0  0  0
   -4.6913   -1.2225    1.6942 H   0  0  0  0  0  0  0  0  0  0  0  0
   -5.7629    0.1696    1.8440 H   0  0  0  0  0  0  0  0  0  0  0  0
    0.3645    0.7383    0.7305 H   0  0  0  0  0  0  0  0  0  0  0  0
  1  2  1  0
  2  3  1  0
  3  4  2  0
  3  5  1  0
  5  6  1  0
  6  7  2  0
  7  8  1  0
  8  9  2  0
  9 10  1  0
 10 11  1  0
 11 12  2  3
 12 13  1  0
 13 14  1  0
 13 15  1  0
 10 16  2  0
 16  6  1  0
  1 17  1  0
  1 18  1  0
  1 19  1  0
  2 20  1  0
  7 21  1  0
  8 22  1  0
  9 23  1  0
 12 24  1  0
 14 25  1  0
 14 26  1  0
 14 27  1  0
 15 28  1  0
 15 29  1  0
 15 30  1  0
 16 31  1  0
M  END
>  <Energy>  (4) 
-49.92739567614939

>  <Real charge>  (4) 
0

>  <Mult>  (4) 
1

$$$$
