mol_622 179
     RDKit          3D

 32 32  0  0  0  0  0  0  0  0999 V2000
   -3.9625   -2.0560   -0.4698 Cl  0  0  0  0  0  0  0  0  0  0  0  0
   -3.6106   -0.9955    0.9503 C   0  0  0  0  0  0  0  0  0  0  0  0
   -2.6675   -1.9683    2.1488 Cl  0  0  0  0  0  0  0  0  0  0  0  0
   -5.2036   -0.6503    1.7303 Cl  0  0  0  0  0  0  0  0  0  0  0  0
   -2.8460    0.3368    0.5504 C   0  0  0  0  0  0  0  0  0  0  0  0
   -3.3662    1.0729   -0.5926 N   0  0  0  0  0  0  0  0  0  0  0  0
   -4.3600    1.9983   -0.4723 C   0  0  0  0  0  0  0  0  0  0  0  0
   -4.9481    2.2644    0.5635 O   0  0  0  0  0  0  0  0  0  0  0  0
   -1.3932    0.1587    0.2558 N   0  0  0  0  0  0  0  0  0  0  0  0
   -0.8933   -0.5943   -0.8190 C   0  0  0  0  0  0  0  0  0  0  0  0
    0.4278   -0.7467   -1.0310 C   0  0  0  0  0  0  0  0  0  0  0  0
    1.3932   -0.1587   -0.1960 N   0  0  0  0  0  0  0  0  0  0  0  0
    0.8933    0.5943    0.8788 C   0  0  0  0  0  0  0  0  0  0  0  0
   -0.4278    0.7467    1.0908 C   0  0  0  0  0  0  0  0  0  0  0  0
    2.8460   -0.3368   -0.4907 C   0  0  0  0  0  0  0  0  0  0  0  0
    3.3662   -1.0729    0.6524 N   0  0  0  0  0  0  0  0  0  0  0  0
    4.3600   -1.9982    0.5321 C   0  0  0  0  0  0  0  0  0  0  0  0
    4.9481   -2.2645   -0.5037 O   0  0  0  0  0  0  0  0  0  0  0  0
    3.6106    0.9955   -0.8906 C   0  0  0  0  0  0  0  0  0  0  0  0
    5.2036    0.6503   -1.6705 Cl  0  0  0  0  0  0  0  0  0  0  0  0
    2.6675    1.9682   -2.0892 Cl  0  0  0  0  0  0  0  0  0  0  0  0
    3.9625    2.0560    0.5295 Cl  0  0  0  0  0  0  0  0  0  0  0  0
   -2.9313    1.0068    1.4173 H   0  0  0  0  0  0  0  0  0  0  0  0
   -2.8112    1.0580   -1.4357 H   0  0  0  0  0  0  0  0  0  0  0  0
   -4.5753    2.5057   -1.4275 H   0  0  0  0  0  0  0  0  0  0  0  0
   -1.6176   -1.0450   -1.4869 H   0  0  0  0  0  0  0  0  0  0  0  0
    0.8048   -1.3312   -1.8650 H   0  0  0  0  0  0  0  0  0  0  0  0
    1.6176    1.0450    1.5467 H   0  0  0  0  0  0  0  0  0  0  0  0
   -0.8048    1.3312    1.9248 H   0  0  0  0  0  0  0  0  0  0  0  0
    2.9313   -1.0068   -1.3576 H   0  0  0  0  0  0  0  0  0  0  0  0
    2.8112   -1.0579    1.4954 H   0  0  0  0  0  0  0  0  0  0  0  0
    4.5753   -2.5056    1.4873 H   0  0  0  0  0  0  0  0  0  0  0  0
  1  2  1  0
  2  3  1  0
  2  4  1  0
  2  5  1  0
  5  6  1  0
  6  7  1  0
  7  8  2  0
  5  9  1  0
  9 10  1  0
 10 11  2  0
 11 12  1  0
 12 13  1  0
 13 14  2  0
 12 15  1  0
 15 16  1  0
 16 17  1  0
 17 18  2  0
 15 19  1  0
 19 20  1  0
 19 21  1  0
 19 22  1  0
 14  9  1  0
  5 23  1  0
  6 24  1  0
  7 25  1  0
 10 26  1  0
 11 27  1  0
 13 28  1  0
 14 29  1  0
 15 30  1  0
 16 31  1  0
 17 32  1  0
M  END
>  <Energy>  (1) 
88.09164286285225

>  <Real charge>  (1) 
0

>  <Mult>  (1) 
1

$$$$
mol_622 336
     RDKit          3D

 32 32  0  0  0  0  0  0  0  0999 V2000
   -3.9032    1.5213   -1.4192 Cl  0  0  0  0  0  0  0  0  0  0  0  0
   -3.7496   -0.1869   -0.8472 C   0  0  0  0  0  0  0  0  0  0  0  0
   -3.0801   -1.1669   -2.2127 Cl  0  0  0  0  0  0  0  0  0  0  0  0
   -5.4335   -0.7854   -0.5830 Cl  0  0  0  0  0  0  0  0  0  0  0  0
   -2.8589   -0.3205    0.4604 C   0  0  0  0  0  0  0  0  0  0  0  0
   -3.1156    0.6332    1.5298 N   0  0  0  0  0  0  0  0  0  0  0  0
   -4.0802    0.4310    2.4714 C   0  0  0  0  0  0  0  0  0  0  0  0
   -4.8560   -0.5108    2.4891 O   0  0  0  0  0  0  0  0  0  0  0  0
   -1.3871   -0.2302    0.2262 N   0  0  0  0  0  0  0  0  0  0  0  0
   -0.5639   -1.3392    0.4861 C   0  0  0  0  0  0  0  0  0  0  0  0
    0.7648   -1.3100    0.2718 C   0  0  0  0  0  0  0  0  0  0  0  0
    1.4172   -0.1669   -0.2208 N   0  0  0  0  0  0  0  0  0  0  0  0
    0.5944    0.9409   -0.4815 C   0  0  0  0  0  0  0  0  0  0  0  0
   -0.7350    0.9123   -0.2652 C   0  0  0  0  0  0  0  0  0  0  0  0
    2.8968   -0.1785   -0.4210 C   0  0  0  0  0  0  0  0  0  0  0  0
    3.0698   -0.0300   -1.8587 N   0  0  0  0  0  0  0  0  0  0  0  0
    4.0947   -0.6219   -2.5350 C   0  0  0  0  0  0  0  0  0  0  0  0
    4.9912   -1.2711   -2.0210 O   0  0  0  0  0  0  0  0  0  0  0  0
    3.7008    0.8301    0.5049 C   0  0  0  0  0  0  0  0  0  0  0  0
    3.1093    0.7819    2.2140 Cl  0  0  0  0  0  0  0  0  0  0  0  0
    3.5949    2.5422   -0.0661 Cl  0  0  0  0  0  0  0  0  0  0  0  0
    5.4606    0.4280    0.5751 Cl  0  0  0  0  0  0  0  0  0  0  0  0
   -3.0720   -1.3166    0.8728 H   0  0  0  0  0  0  0  0  0  0  0  0
   -2.3972    1.3202    1.7063 H   0  0  0  0  0  0  0  0  0  0  0  0
   -4.0798    1.2176    3.2444 H   0  0  0  0  0  0  0  0  0  0  0  0
   -1.0570   -2.2271    0.8702 H   0  0  0  0  0  0  0  0  0  0  0  0
    1.3908   -2.1741    0.4732 H   0  0  0  0  0  0  0  0  0  0  0  0
    1.0733    1.8293   -0.8753 H   0  0  0  0  0  0  0  0  0  0  0  0
   -1.3475    1.7846   -0.4597 H   0  0  0  0  0  0  0  0  0  0  0  0
    3.2616   -1.1829   -0.1648 H   0  0  0  0  0  0  0  0  0  0  0  0
    2.2737    0.3096   -2.3783 H   0  0  0  0  0  0  0  0  0  0  0  0
    4.0226   -0.4630   -3.6239 H   0  0  0  0  0  0  0  0  0  0  0  0
  1  2  1  0
  2  3  1  0
  2  4  1  0
  2  5  1  0
  5  6  1  0
  6  7  1  0
  7  8  2  0
  5  9  1  0
  9 10  1  0
 10 11  2  0
 11 12  1  0
 12 13  1  0
 13 14  2  0
 12 15  1  0
 15 16  1  0
 16 17  1  0
 17 18  2  0
 15 19  1  0
 19 20  1  0
 19 21  1  0
 19 22  1  0
 14  9  1  0
  5 23  1  0
  6 24  1  0
  7 25  1  0
 10 26  1  0
 11 27  1  0
 13 28  1  0
 14 29  1  0
 15 30  1  0
 16 31  1  0
 17 32  1  0
M  END
>  <Energy>  (2) 
88.12465062451992

>  <Real charge>  (2) 
0

>  <Mult>  (2) 
1

$$$$
mol_622 44
     RDKit          3D

 32 32  0  0  0  0  0  0  0  0999 V2000
   -4.1686   -1.6643   -0.2302 Cl  0  0  0  0  0  0  0  0  0  0  0  0
   -3.2519   -1.6569    1.3272 C   0  0  0  0  0  0  0  0  0  0  0  0
   -2.1628   -3.0969    1.3415 Cl  0  0  0  0  0  0  0  0  0  0  0  0
   -4.4746   -1.9327    2.6300 Cl  0  0  0  0  0  0  0  0  0  0  0  0
   -2.4451   -0.3106    1.5583 C   0  0  0  0  0  0  0  0  0  0  0  0
   -3.1788    0.9298    1.3471 N   0  0  0  0  0  0  0  0  0  0  0  0
   -3.8851    1.5372    2.3424 C   0  0  0  0  0  0  0  0  0  0  0  0
   -4.0068    1.1079    3.4786 O   0  0  0  0  0  0  0  0  0  0  0  0
   -1.2074   -0.1726    0.7353 N   0  0  0  0  0  0  0  0  0  0  0  0
   -1.1976   -0.0638   -0.6645 C   0  0  0  0  0  0  0  0  0  0  0  0
   -0.0511    0.0047   -1.3677 C   0  0  0  0  0  0  0  0  0  0  0  0
    1.2107   -0.0286   -0.7495 N   0  0  0  0  0  0  0  0  0  0  0  0
    1.2006   -0.1174    0.6517 C   0  0  0  0  0  0  0  0  0  0  0  0
    0.0540   -0.1853    1.3549 C   0  0  0  0  0  0  0  0  0  0  0  0
    2.4503   -0.0097   -1.5808 C   0  0  0  0  0  0  0  0  0  0  0  0
    3.1439    1.2119   -1.1963 N   0  0  0  0  0  0  0  0  0  0  0  0
    3.8278    1.9755   -2.0951 C   0  0  0  0  0  0  0  0  0  0  0  0
    3.9608    1.7137   -3.2799 O   0  0  0  0  0  0  0  0  0  0  0  0
    3.3009   -1.3482   -1.5388 C   0  0  0  0  0  0  0  0  0  0  0  0
    4.2209   -1.5441    0.0043 Cl  0  0  0  0  0  0  0  0  0  0  0  0
    4.5289   -1.3990   -2.8646 Cl  0  0  0  0  0  0  0  0  0  0  0  0
    2.2590   -2.8066   -1.7572 Cl  0  0  0  0  0  0  0  0  0  0  0  0
   -2.1434   -0.3180    2.6149 H   0  0  0  0  0  0  0  0  0  0  0  0
   -3.0128    1.4259    0.4845 H   0  0  0  0  0  0  0  0  0  0  0  0
   -4.3362    2.4881    2.0132 H   0  0  0  0  0  0  0  0  0  0  0  0
   -2.1574   -0.0305   -1.1659 H   0  0  0  0  0  0  0  0  0  0  0  0
   -0.0540    0.0867   -2.4505 H   0  0  0  0  0  0  0  0  0  0  0  0
    2.1599   -0.1235    1.1550 H   0  0  0  0  0  0  0  0  0  0  0  0
    0.0567   -0.2557    2.4386 H   0  0  0  0  0  0  0  0  0  0  0  0
    2.1466    0.1212   -2.6288 H   0  0  0  0  0  0  0  0  0  0  0  0
    2.9639    1.5767   -0.2731 H   0  0  0  0  0  0  0  0  0  0  0  0
    4.2486    2.8850   -1.6348 H   0  0  0  0  0  0  0  0  0  0  0  0
  1  2  1  0
  2  3  1  0
  2  4  1  0
  2  5  1  0
  5  6  1  0
  6  7  1  0
  7  8  2  0
  5  9  1  0
  9 10  1  0
 10 11  2  0
 11 12  1  0
 12 13  1  0
 13 14  2  0
 12 15  1  0
 15 16  1  0
 16 17  1  0
 17 18  2  0
 15 19  1  0
 19 20  1  0
 19 21  1  0
 19 22  1  0
 14  9  1  0
  5 23  1  0
  6 24  1  0
  7 25  1  0
 10 26  1  0
 11 27  1  0
 13 28  1  0
 14 29  1  0
 15 30  1  0
 16 31  1  0
 17 32  1  0
M  END
>  <Energy>  (3) 
88.50572760590285

>  <Real charge>  (3) 
0

>  <Mult>  (3) 
1

$$$$
mol_622 249
     RDKit          3D

 32 32  0  0  0  0  0  0  0  0999 V2000
   -3.0671    2.5616    0.0939 Cl  0  0  0  0  0  0  0  0  0  0  0  0
   -3.6170    1.0264    0.8698 C   0  0  0  0  0  0  0  0  0  0  0  0
   -5.4115    0.9691    0.6611 Cl  0  0  0  0  0  0  0  0  0  0  0  0
   -3.3229    1.1638    2.6482 Cl  0  0  0  0  0  0  0  0  0  0  0  0
   -2.9099   -0.2411    0.2276 C   0  0  0  0  0  0  0  0  0  0  0  0
   -3.0860   -1.5075    0.9250 N   0  0  0  0  0  0  0  0  0  0  0  0
   -4.1442   -2.3321    0.6826 C   0  0  0  0  0  0  0  0  0  0  0  0
   -5.0580   -2.0924   -0.0901 O   0  0  0  0  0  0  0  0  0  0  0  0
   -1.4343   -0.1087    0.0430 N   0  0  0  0  0  0  0  0  0  0  0  0
   -0.8901   -0.0665   -1.2521 C   0  0  0  0  0  0  0  0  0  0  0  0
    0.4258    0.1152   -1.4702 C   0  0  0  0  0  0  0  0  0  0  0  0
    1.3430    0.2748   -0.4173 N   0  0  0  0  0  0  0  0  0  0  0  0
    0.8029    0.2067    0.8771 C   0  0  0  0  0  0  0  0  0  0  0  0
   -0.5143    0.0248    1.0954 C   0  0  0  0  0  0  0  0  0  0  0  0
    2.7807    0.5447   -0.7156 C   0  0  0  0  0  0  0  0  0  0  0  0
    3.4963   -0.5985   -0.1659 N   0  0  0  0  0  0  0  0  0  0  0  0
    4.6012   -1.1245   -0.7669 C   0  0  0  0  0  0  0  0  0  0  0  0
    5.1257   -0.6861   -1.7779 O   0  0  0  0  0  0  0  0  0  0  0  0
    3.2939    1.9807   -0.2757 C   0  0  0  0  0  0  0  0  0  0  0  0
    4.8778    2.3899   -1.0442 Cl  0  0  0  0  0  0  0  0  0  0  0  0
    3.5529    2.1133    1.5086 Cl  0  0  0  0  0  0  0  0  0  0  0  0
    2.1420    3.2809   -0.7695 Cl  0  0  0  0  0  0  0  0  0  0  0  0
   -3.3610   -0.3673   -0.7665 H   0  0  0  0  0  0  0  0  0  0  0  0
   -2.3004   -1.8555    1.4533 H   0  0  0  0  0  0  0  0  0  0  0  0
   -4.0831   -3.2695    1.2603 H   0  0  0  0  0  0  0  0  0  0  0  0
   -1.5901   -0.1826   -2.0740 H   0  0  0  0  0  0  0  0  0  0  0  0
    0.8338    0.1521   -2.4758 H   0  0  0  0  0  0  0  0  0  0  0  0
    1.4947    0.2991    1.7058 H   0  0  0  0  0  0  0  0  0  0  0  0
   -0.9065   -0.0325    2.1038 H   0  0  0  0  0  0  0  0  0  0  0  0
    2.9101    0.4986   -1.8059 H   0  0  0  0  0  0  0  0  0  0  0  0
    3.0397   -1.1181    0.5682 H   0  0  0  0  0  0  0  0  0  0  0  0
    4.9758   -2.0186   -0.2412 H   0  0  0  0  0  0  0  0  0  0  0  0
  1  2  1  0
  2  3  1  0
  2  4  1  0
  2  5  1  0
  5  6  1  0
  6  7  1  0
  7  8  2  0
  5  9  1  0
  9 10  1  0
 10 11  2  0
 11 12  1  0
 12 13  1  0
 13 14  2  0
 12 15  1  0
 15 16  1  0
 16 17  1  0
 17 18  2  0
 15 19  1  0
 19 20  1  0
 19 21  1  0
 19 22  1  0
 14  9  1  0
  5 23  1  0
  6 24  1  0
  7 25  1  0
 10 26  1  0
 11 27  1  0
 13 28  1  0
 14 29  1  0
 15 30  1  0
 16 31  1  0
 17 32  1  0
M  END
>  <Energy>  (4) 
88.76555405663368

>  <Real charge>  (4) 
0

>  <Mult>  (4) 
1

$$$$
