mol_856 30
     RDKit          3D

 28 29  0  0  0  0  0  0  0  0999 V2000
    4.9258   -2.1178   -0.9450 Cl  0  0  0  0  0  0  0  0  0  0  0  0
    3.5261   -1.1851   -0.5858 C   0  0  0  0  0  0  0  0  0  0  0  0
    3.5238   -0.3357    0.5164 C   0  0  0  0  0  0  0  0  0  0  0  0
    2.3863    0.4212    0.8092 C   0  0  0  0  0  0  0  0  0  0  0  0
    1.2388    0.3405   -0.0009 C   0  0  0  0  0  0  0  0  0  0  0  0
    1.2614   -0.5280   -1.1057 C   0  0  0  0  0  0  0  0  0  0  0  0
    2.3997   -1.2851   -1.3968 C   0  0  0  0  0  0  0  0  0  0  0  0
   -0.0003    1.1856    0.3423 C   0  0  0  0  0  0  0  0  0  0  0  0
   -1.2520    0.2945    0.4662 C   0  0  0  0  0  0  0  0  0  0  0  0
   -1.4122   -0.4660    1.6438 C   0  0  0  0  0  0  0  0  0  0  0  0
   -2.5128   -1.3089    1.8188 C   0  0  0  0  0  0  0  0  0  0  0  0
   -3.4687   -1.4106    0.8152 C   0  0  0  0  0  0  0  0  0  0  0  0
   -4.8250   -2.4470    1.0239 Cl  0  0  0  0  0  0  0  0  0  0  0  0
   -3.3279   -0.6802   -0.3604 C   0  0  0  0  0  0  0  0  0  0  0  0
   -2.2248    0.1634   -0.5368 C   0  0  0  0  0  0  0  0  0  0  0  0
   -0.1007    2.5338   -0.4632 C   0  0  0  0  0  0  0  0  0  0  0  0
   -1.5605    3.4819    0.0277 Cl  0  0  0  0  0  0  0  0  0  0  0  0
    1.3200    3.6038   -0.0896 Cl  0  0  0  0  0  0  0  0  0  0  0  0
   -0.1380    2.3402   -2.2507 Cl  0  0  0  0  0  0  0  0  0  0  0  0
    4.4026   -0.2572    1.1512 H   0  0  0  0  0  0  0  0  0  0  0  0
    2.4112    1.0775    1.6778 H   0  0  0  0  0  0  0  0  0  0  0  0
    0.3940   -0.6355   -1.7540 H   0  0  0  0  0  0  0  0  0  0  0  0
    2.3980   -1.9512   -2.2558 H   0  0  0  0  0  0  0  0  0  0  0  0
    0.1531    1.5238    1.3813 H   0  0  0  0  0  0  0  0  0  0  0  0
   -0.6706   -0.4125    2.4401 H   0  0  0  0  0  0  0  0  0  0  0  0
   -2.6133   -1.8830    2.7361 H   0  0  0  0  0  0  0  0  0  0  0  0
   -4.0724   -0.7629   -1.1488 H   0  0  0  0  0  0  0  0  0  0  0  0
   -2.1614    0.7004   -1.4778 H   0  0  0  0  0  0  0  0  0  0  0  0
  1  2  1  0
  2  3  2  0
  3  4  1  0
  4  5  2  0
  5  6  1  0
  6  7  2  0
  5  8  1  0
  8  9  1  0
  9 10  2  0
 10 11  1  0
 11 12  2  0
 12 13  1  0
 12 14  1  0
 14 15  2  0
  8 16  1  0
 16 17  1  0
 16 18  1  0
 16 19  1  0
  7  2  1  0
 15  9  1  0
  3 20  1  0
  4 21  1  0
  6 22  1  0
  7 23  1  0
  8 24  1  0
 10 25  1  0
 11 26  1  0
 14 27  1  0
 15 28  1  0
M  END
>  <Energy>  (1) 
88.63476851223874

>  <Real charge>  (1) 
0

>  <Mult>  (1) 
1

$$$$
