mol_583 347
     RDKit          3D

 36 37  0  0  0  0  0  0  0  0999 V2000
   -2.4960   -2.0707    1.6468 C   0  0  0  0  0  0  0  0  0  0  0  0
   -1.5567   -1.6261    0.5592 C   0  0  0  0  0  0  0  0  0  0  0  0
   -0.1721   -1.7317    0.7783 C   0  0  0  0  0  0  0  0  0  0  0  0
    0.7300   -1.3592   -0.2227 C   0  0  0  0  0  0  0  0  0  0  0  0
    0.2738   -0.9047   -1.4591 C   0  0  0  0  0  0  0  0  0  0  0  0
   -1.0989   -0.7988   -1.6830 C   0  0  0  0  0  0  0  0  0  0  0  0
   -2.0143   -1.1401   -0.6802 C   0  0  0  0  0  0  0  0  0  0  0  0
   -3.4136   -1.0004   -0.9272 N   0  0  0  0  0  0  0  0  0  0  0  0
   -4.0412    0.5513   -1.2564 S   0  0  0  0  0  6  0  0  0  0  0  0
   -5.4816    0.3548   -1.2179 O   0  0  0  0  0  0  0  0  0  0  0  0
   -3.4230    1.0321   -2.4795 O   0  0  0  0  0  0  0  0  0  0  0  0
   -3.5162    1.5974    0.1971 C   0  0  0  0  0  0  0  0  0  0  0  0
   -2.1644    1.7657    0.2574 F   0  0  0  0  0  0  0  0  0  0  0  0
   -4.0690    2.8417    0.1648 F   0  0  0  0  0  0  0  0  0  0  0  0
   -3.8896    1.0298    1.3810 F   0  0  0  0  0  0  0  0  0  0  0  0
    2.4830   -1.4876    0.0600 S   0  0  0  0  0  6  0  0  0  0  0  0
    2.6780   -1.9755    1.4134 O   0  0  0  0  0  0  0  0  0  0  0  0
    3.0282   -2.2116   -1.0734 O   0  0  0  0  0  0  0  0  0  0  0  0
    3.1206    0.1708    0.0192 C   0  0  0  0  0  0  0  0  0  0  0  0
    2.8181    1.0408    1.0714 C   0  0  0  0  0  0  0  0  0  0  0  0
    3.3100    2.3452    1.0428 C   0  0  0  0  0  0  0  0  0  0  0  0
    4.1017    2.7701   -0.0258 C   0  0  0  0  0  0  0  0  0  0  0  0
    4.4099    1.8924   -1.0670 C   0  0  0  0  0  0  0  0  0  0  0  0
    3.9226    0.5858   -1.0472 C   0  0  0  0  0  0  0  0  0  0  0  0
   -3.0479   -2.9598    1.3258 H   0  0  0  0  0  0  0  0  0  0  0  0
   -3.2027   -1.2750    1.8976 H   0  0  0  0  0  0  0  0  0  0  0  0
   -1.9573   -2.3257    2.5657 H   0  0  0  0  0  0  0  0  0  0  0  0
    0.2009   -2.1136    1.7281 H   0  0  0  0  0  0  0  0  0  0  0  0
    0.9697   -0.6464   -2.2544 H   0  0  0  0  0  0  0  0  0  0  0  0
   -1.4438   -0.4681   -2.6611 H   0  0  0  0  0  0  0  0  0  0  0  0
   -4.0523   -1.5457   -0.3476 H   0  0  0  0  0  0  0  0  0  0  0  0
    2.2137    0.7114    1.9133 H   0  0  0  0  0  0  0  0  0  0  0  0
    3.0833    3.0313    1.8557 H   0  0  0  0  0  0  0  0  0  0  0  0
    4.4870    3.7872   -0.0436 H   0  0  0  0  0  0  0  0  0  0  0  0
    5.0352    2.2272   -1.8916 H   0  0  0  0  0  0  0  0  0  0  0  0
    4.1748   -0.0940   -1.8582 H   0  0  0  0  0  0  0  0  0  0  0  0
  1  2  1  0
  2  3  2  0
  3  4  1  0
  4  5  2  0
  5  6  1  0
  6  7  2  0
  7  8  1  0
  8  9  1  0
  9 10  2  0
  9 11  2  0
  9 12  1  0
 12 13  1  0
 12 14  1  0
 12 15  1  0
  4 16  1  0
 16 17  2  0
 16 18  2  0
 16 19  1  0
 19 20  2  0
 20 21  1  0
 21 22  2  0
 22 23  1  0
 23 24  2  0
  7  2  1  0
 24 19  1  0
  1 25  1  0
  1 26  1  0
  1 27  1  0
  3 28  1  0
  5 29  1  0
  6 30  1  0
  8 31  1  0
 20 32  1  0
 21 33  1  0
 22 34  1  0
 23 35  1  0
 24 36  1  0
M  END
>  <Energy>  (1) 
180.9313825254955

>  <Real charge>  (1) 
0

>  <Mult>  (1) 
1

$$$$
mol_583 40
     RDKit          3D

 36 37  0  0  0  0  0  0  0  0999 V2000
    2.0159    2.3456    1.4033 C   0  0  0  0  0  0  0  0  0  0  0  0
    1.3860    1.1793    0.6918 C   0  0  0  0  0  0  0  0  0  0  0  0
    0.3522    1.4287   -0.2278 C   0  0  0  0  0  0  0  0  0  0  0  0
   -0.2764    0.3676   -0.8859 C   0  0  0  0  0  0  0  0  0  0  0  0
    0.1112   -0.9494   -0.6444 C   0  0  0  0  0  0  0  0  0  0  0  0
    1.1328   -1.2036    0.2712 C   0  0  0  0  0  0  0  0  0  0  0  0
    1.7805   -0.1513    0.9293 C   0  0  0  0  0  0  0  0  0  0  0  0
    2.8311   -0.4347    1.8545 N   0  0  0  0  0  0  0  0  0  0  0  0
    4.2267   -1.2454    1.3008 S   0  0  0  0  0  6  0  0  0  0  0  0
    5.1502   -1.1353    2.4192 O   0  0  0  0  0  0  0  0  0  0  0  0
    3.8236   -2.5632    0.8426 O   0  0  0  0  0  0  0  0  0  0  0  0
    4.8471   -0.2116   -0.1252 C   0  0  0  0  0  0  0  0  0  0  0  0
    6.0649   -0.6270   -0.5712 F   0  0  0  0  0  0  0  0  0  0  0  0
    4.0018   -0.2372   -1.1932 F   0  0  0  0  0  0  0  0  0  0  0  0
    4.9832    1.0983    0.2340 F   0  0  0  0  0  0  0  0  0  0  0  0
   -1.5859    0.6862   -2.0492 S   0  0  0  0  0  6  0  0  0  0  0  0
   -1.2536   -0.0545   -3.2520 O   0  0  0  0  0  0  0  0  0  0  0  0
   -1.7934    2.1223   -2.0983 O   0  0  0  0  0  0  0  0  0  0  0  0
   -3.0610   -0.0187   -1.3524 C   0  0  0  0  0  0  0  0  0  0  0  0
   -3.6210   -1.1678   -1.9169 C   0  0  0  0  0  0  0  0  0  0  0  0
   -4.7767   -1.7107   -1.3559 C   0  0  0  0  0  0  0  0  0  0  0  0
   -5.3676   -1.1036   -0.2460 C   0  0  0  0  0  0  0  0  0  0  0  0
   -4.8102    0.0516    0.3052 C   0  0  0  0  0  0  0  0  0  0  0  0
   -3.6547    0.6016   -0.2486 C   0  0  0  0  0  0  0  0  0  0  0  0
    3.0997    2.3471    1.2581 H   0  0  0  0  0  0  0  0  0  0  0  0
    1.6371    3.3013    1.0255 H   0  0  0  0  0  0  0  0  0  0  0  0
    1.7914    2.2986    2.4737 H   0  0  0  0  0  0  0  0  0  0  0  0
    0.0388    2.4525   -0.4296 H   0  0  0  0  0  0  0  0  0  0  0  0
   -0.3684   -1.7797   -1.1584 H   0  0  0  0  0  0  0  0  0  0  0  0
    1.4040   -2.2382    0.4730 H   0  0  0  0  0  0  0  0  0  0  0  0
    3.0723    0.2903    2.5307 H   0  0  0  0  0  0  0  0  0  0  0  0
   -3.1726   -1.6418   -2.7874 H   0  0  0  0  0  0  0  0  0  0  0  0
   -5.2220   -2.6047   -1.7865 H   0  0  0  0  0  0  0  0  0  0  0  0
   -6.2713   -1.5282    0.1857 H   0  0  0  0  0  0  0  0  0  0  0  0
   -5.2827    0.5255    1.1625 H   0  0  0  0  0  0  0  0  0  0  0  0
   -3.2333    1.5099    0.1760 H   0  0  0  0  0  0  0  0  0  0  0  0
  1  2  1  0
  2  3  2  0
  3  4  1  0
  4  5  2  0
  5  6  1  0
  6  7  2  0
  7  8  1  0
  8  9  1  0
  9 10  2  0
  9 11  2  0
  9 12  1  0
 12 13  1  0
 12 14  1  0
 12 15  1  0
  4 16  1  0
 16 17  2  0
 16 18  2  0
 16 19  1  0
 19 20  2  0
 20 21  1  0
 21 22  2  0
 22 23  1  0
 23 24  2  0
  7  2  1  0
 24 19  1  0
  1 25  1  0
  1 26  1  0
  1 27  1  0
  3 28  1  0
  5 29  1  0
  6 30  1  0
  8 31  1  0
 20 32  1  0
 21 33  1  0
 22 34  1  0
 23 35  1  0
 24 36  1  0
M  END
>  <Energy>  (2) 
181.06770241457784

>  <Real charge>  (2) 
0

>  <Mult>  (2) 
1

$$$$
mol_583 326
     RDKit          3D

 36 37  0  0  0  0  0  0  0  0999 V2000
   -1.8219    2.4714   -1.7849 C   0  0  0  0  0  0  0  0  0  0  0  0
   -1.1477    1.8518   -0.5923 C   0  0  0  0  0  0  0  0  0  0  0  0
    0.2547    1.8445   -0.5239 C   0  0  0  0  0  0  0  0  0  0  0  0
    0.9012    1.2474    0.5630 C   0  0  0  0  0  0  0  0  0  0  0  0
    0.1701    0.6686    1.6017 C   0  0  0  0  0  0  0  0  0  0  0  0
   -1.2229    0.6714    1.5396 C   0  0  0  0  0  0  0  0  0  0  0  0
   -1.8790    1.2634    0.4551 C   0  0  0  0  0  0  0  0  0  0  0  0
   -3.3035    1.1855    0.4042 N   0  0  0  0  0  0  0  0  0  0  0  0
   -3.9725   -0.2421   -0.2675 S   0  0  0  0  0  6  0  0  0  0  0  0
   -5.1370    0.2428   -0.9919 O   0  0  0  0  0  0  0  0  0  0  0  0
   -2.9279   -0.9464   -0.9898 O   0  0  0  0  0  0  0  0  0  0  0  0
   -4.5213   -1.2092    1.2238 C   0  0  0  0  0  0  0  0  0  0  0  0
   -3.4699   -1.5928    2.0044 F   0  0  0  0  0  0  0  0  0  0  0  0
   -5.1943   -2.3441    0.8843 F   0  0  0  0  0  0  0  0  0  0  0  0
   -5.3518   -0.4811    2.0249 F   0  0  0  0  0  0  0  0  0  0  0  0
    2.6797    1.2269    0.6426 S   0  0  0  0  0  6  0  0  0  0  0  0
    3.0298    1.6382    1.9902 O   0  0  0  0  0  0  0  0  0  0  0  0
    3.1865    1.9533   -0.5073 O   0  0  0  0  0  0  0  0  0  0  0  0
    3.1742   -0.4668    0.4348 C   0  0  0  0  0  0  0  0  0  0  0  0
    3.8193   -1.1402    1.4755 C   0  0  0  0  0  0  0  0  0  0  0  0
    4.1907   -2.4730    1.3000 C   0  0  0  0  0  0  0  0  0  0  0  0
    3.9214   -3.1214    0.0931 C   0  0  0  0  0  0  0  0  0  0  0  0
    3.2845   -2.4400   -0.9458 C   0  0  0  0  0  0  0  0  0  0  0  0
    2.9101   -1.1070   -0.7801 C   0  0  0  0  0  0  0  0  0  0  0  0
   -2.4888    3.2793   -1.4674 H   0  0  0  0  0  0  0  0  0  0  0  0
   -1.0936    2.9026   -2.4800 H   0  0  0  0  0  0  0  0  0  0  0  0
   -2.3956    1.7182   -2.3334 H   0  0  0  0  0  0  0  0  0  0  0  0
    0.8402    2.2983   -1.3225 H   0  0  0  0  0  0  0  0  0  0  0  0
    0.6719    0.2203    2.4565 H   0  0  0  0  0  0  0  0  0  0  0  0
   -1.7879    0.2226    2.3523 H   0  0  0  0  0  0  0  0  0  0  0  0
   -3.7775    1.9934   -0.0052 H   0  0  0  0  0  0  0  0  0  0  0  0
    4.0389   -0.6405    2.4164 H   0  0  0  0  0  0  0  0  0  0  0  0
    4.6946   -3.0074    2.1021 H   0  0  0  0  0  0  0  0  0  0  0  0
    4.2151   -4.1601   -0.0409 H   0  0  0  0  0  0  0  0  0  0  0  0
    3.0851   -2.9487   -1.8863 H   0  0  0  0  0  0  0  0  0  0  0  0
    2.4251   -0.5790   -1.5978 H   0  0  0  0  0  0  0  0  0  0  0  0
  1  2  1  0
  2  3  2  0
  3  4  1  0
  4  5  2  0
  5  6  1  0
  6  7  2  0
  7  8  1  0
  8  9  1  0
  9 10  2  0
  9 11  2  0
  9 12  1  0
 12 13  1  0
 12 14  1  0
 12 15  1  0
  4 16  1  0
 16 17  2  0
 16 18  2  0
 16 19  1  0
 19 20  2  0
 20 21  1  0
 21 22  2  0
 22 23  1  0
 23 24  2  0
  7  2  1  0
 24 19  1  0
  1 25  1  0
  1 26  1  0
  1 27  1  0
  3 28  1  0
  5 29  1  0
  6 30  1  0
  8 31  1  0
 20 32  1  0
 21 33  1  0
 22 34  1  0
 23 35  1  0
 24 36  1  0
M  END
>  <Energy>  (3) 
181.5079284373106

>  <Real charge>  (3) 
0

>  <Mult>  (3) 
1

$$$$
mol_583 276
     RDKit          3D

 36 37  0  0  0  0  0  0  0  0999 V2000
    2.0558   -1.6784    1.5738 C   0  0  0  0  0  0  0  0  0  0  0  0
    1.3846   -1.2303    0.3055 C   0  0  0  0  0  0  0  0  0  0  0  0
    0.0113   -1.4657    0.1351 C   0  0  0  0  0  0  0  0  0  0  0  0
   -0.6372   -1.0317   -1.0266 C   0  0  0  0  0  0  0  0  0  0  0  0
    0.0662   -0.3765   -2.0373 C   0  0  0  0  0  0  0  0  0  0  0  0
    1.4309   -0.1393   -1.8744 C   0  0  0  0  0  0  0  0  0  0  0  0
    2.0885   -0.5681   -0.7164 C   0  0  0  0  0  0  0  0  0  0  0  0
    3.4717   -0.2481   -0.5680 N   0  0  0  0  0  0  0  0  0  0  0  0
    3.8397    1.3002    0.0675 S   0  0  0  0  0  6  0  0  0  0  0  0
    4.9984    1.0489    0.9102 O   0  0  0  0  0  0  0  0  0  0  0  0
    2.6356    1.8547    0.6603 O   0  0  0  0  0  0  0  0  0  0  0  0
    4.3550    2.2742   -1.4313 C   0  0  0  0  0  0  0  0  0  0  0  0
    5.3597    1.6574   -2.1180 F   0  0  0  0  0  0  0  0  0  0  0  0
    3.3285    2.4414   -2.3145 F   0  0  0  0  0  0  0  0  0  0  0  0
    4.8035    3.5196   -1.1083 F   0  0  0  0  0  0  0  0  0  0  0  0
   -2.3828   -1.3314   -1.2045 S   0  0  0  0  0  6  0  0  0  0  0  0
   -2.8027   -0.7755   -2.4778 O   0  0  0  0  0  0  0  0  0  0  0  0
   -2.5826   -2.7385   -0.9082 O   0  0  0  0  0  0  0  0  0  0  0  0
   -3.1939   -0.3789    0.0571 C   0  0  0  0  0  0  0  0  0  0  0  0
   -3.9130   -1.0238    1.0669 C   0  0  0  0  0  0  0  0  0  0  0  0
   -4.5330   -0.2619    2.0570 C   0  0  0  0  0  0  0  0  0  0  0  0
   -4.4356    1.1307    2.0319 C   0  0  0  0  0  0  0  0  0  0  0  0
   -3.7229    1.7690    1.0151 C   0  0  0  0  0  0  0  0  0  0  0  0
   -3.1003    1.0158    0.0204 C   0  0  0  0  0  0  0  0  0  0  0  0
    2.4575   -0.8181    2.1180 H   0  0  0  0  0  0  0  0  0  0  0  0
    2.8661   -2.3790    1.3481 H   0  0  0  0  0  0  0  0  0  0  0  0
    1.3547   -2.1921    2.2402 H   0  0  0  0  0  0  0  0  0  0  0  0
   -0.5532   -1.9852    0.9081 H   0  0  0  0  0  0  0  0  0  0  0  0
   -0.4326   -0.0482   -2.9469 H   0  0  0  0  0  0  0  0  0  0  0  0
    1.9751    0.3685   -2.6663 H   0  0  0  0  0  0  0  0  0  0  0  0
    4.0389   -0.9455   -0.0814 H   0  0  0  0  0  0  0  0  0  0  0  0
   -3.9989   -2.1079    1.0901 H   0  0  0  0  0  0  0  0  0  0  0  0
   -5.0964   -0.7521    2.8476 H   0  0  0  0  0  0  0  0  0  0  0  0
   -4.9225    1.7215    2.8047 H   0  0  0  0  0  0  0  0  0  0  0  0
   -3.6577    2.8545    0.9976 H   0  0  0  0  0  0  0  0  0  0  0  0
   -2.5566    1.5200   -0.7751 H   0  0  0  0  0  0  0  0  0  0  0  0
  1  2  1  0
  2  3  2  0
  3  4  1  0
  4  5  2  0
  5  6  1  0
  6  7  2  0
  7  8  1  0
  8  9  1  0
  9 10  2  0
  9 11  2  0
  9 12  1  0
 12 13  1  0
 12 14  1  0
 12 15  1  0
  4 16  1  0
 16 17  2  0
 16 18  2  0
 16 19  1  0
 19 20  2  0
 20 21  1  0
 21 22  2  0
 22 23  1  0
 23 24  2  0
  7  2  1  0
 24 19  1  0
  1 25  1  0
  1 26  1  0
  1 27  1  0
  3 28  1  0
  5 29  1  0
  6 30  1  0
  8 31  1  0
 20 32  1  0
 21 33  1  0
 22 34  1  0
 23 35  1  0
 24 36  1  0
M  END
>  <Energy>  (4) 
181.51732360846637

>  <Real charge>  (4) 
0

>  <Mult>  (4) 
1

$$$$
