mol_318 40
     RDKit          3D

 12 12  0  0  0  0  0  0  0  0999 V2000
    2.5468   -0.6638    0.0063 O   0  0  0  0  0  0  0  0  0  0  0  0
    1.3596   -0.3609    0.0035 C   0  0  0  0  0  0  0  0  0  0  0  0
    0.9377    1.0545   -0.0178 C   0  0  0  0  0  0  0  0  0  0  0  0
   -0.3676    1.3344   -0.0201 C   0  0  0  0  0  0  0  0  0  0  0  0
   -1.2990    0.3347   -0.0032 N   0  0  0  0  0  0  0  0  0  0  0  0
   -0.9819   -0.9976    0.0170 C   0  0  0  0  0  0  0  0  0  0  0  0
   -1.8436   -1.8698    0.0318 O   0  0  0  0  0  0  0  0  0  0  0  0
    0.3538   -1.2858    0.0194 N   0  0  0  0  0  0  0  0  0  0  0  0
    1.7114    1.8098   -0.0307 H   0  0  0  0  0  0  0  0  0  0  0  0
   -0.7426    2.3526   -0.0353 H   0  0  0  0  0  0  0  0  0  0  0  0
   -2.2898    0.5504   -0.0050 H   0  0  0  0  0  0  0  0  0  0  0  0
    0.6152   -2.2585    0.0340 H   0  0  0  0  0  0  0  0  0  0  0  0
  1  2  2  0
  2  3  1  0
  3  4  2  0
  4  5  1  0
  5  6  1  0
  6  7  2  0
  6  8  1  0
  8  2  1  0
  3  9  1  0
  4 10  1  0
  5 11  1  0
  8 12  1  0
M  END
>  <Energy>  (1) 
-96.50760287313838

>  <Real charge>  (1) 
0

>  <Mult>  (1) 
1

$$$$
