mol_1010 91
     RDKit          3D

 19 18  0  0  0  0  0  0  0  0999 V2000
   -3.0777   -0.0754   -0.2605 C   0  0  0  0  0  0  0  0  0  0  0  0
   -1.7788    0.5000    0.2811 C   0  0  0  0  0  0  0  0  0  0  0  0
   -0.5631   -0.2349   -0.2816 C   0  0  0  0  0  0  0  0  0  0  0  0
    0.7392    0.3458    0.2645 C   0  0  0  0  0  0  0  0  0  0  0  0
    1.9665   -0.3653   -0.2777 C   0  0  0  0  0  0  0  0  0  0  0  0
    1.8990   -1.3043   -1.0694 O   0  0  0  0  0  0  0  0  0  0  0  0
    3.2978    0.1444    0.2102 C   0  0  0  0  0  0  0  0  0  0  0  0
   -3.1194    0.0088   -1.3512 H   0  0  0  0  0  0  0  0  0  0  0  0
   -3.9340    0.4649    0.1550 H   0  0  0  0  0  0  0  0  0  0  0  0
   -3.1804   -1.1319    0.0070 H   0  0  0  0  0  0  0  0  0  0  0  0
   -1.7225    1.5643    0.0244 H   0  0  0  0  0  0  0  0  0  0  0  0
   -1.7831    0.4297    1.3751 H   0  0  0  0  0  0  0  0  0  0  0  0
   -0.6264   -1.3009   -0.0297 H   0  0  0  0  0  0  0  0  0  0  0  0
   -0.5659   -0.1693   -1.3769 H   0  0  0  0  0  0  0  0  0  0  0  0
    0.7565    0.2610    1.3568 H   0  0  0  0  0  0  0  0  0  0  0  0
    0.8176    1.4049   -0.0050 H   0  0  0  0  0  0  0  0  0  0  0  0
    3.3541    0.0402    1.2965 H   0  0  0  0  0  0  0  0  0  0  0  0
    3.4156    1.1926   -0.0754 H   0  0  0  0  0  0  0  0  0  0  0  0
    4.1047   -0.4382   -0.2430 H   0  0  0  0  0  0  0  0  0  0  0  0
  1  2  1  0
  2  3  1  0
  3  4  1  0
  4  5  1  0
  5  6  2  0
  5  7  1  0
  1  8  1  0
  1  9  1  0
  1 10  1  0
  2 11  1  0
  2 12  1  0
  3 13  1  0
  3 14  1  0
  4 15  1  0
  4 16  1  0
  7 17  1  0
  7 18  1  0
  7 19  1  0
M  END
>  <Energy>  (1) 
0.0023964506269829253

>  <Real charge>  (1) 
0

>  <Mult>  (1) 
1

$$$$
mol_1010 290
     RDKit          3D

 19 18  0  0  0  0  0  0  0  0999 V2000
   -2.9119   -0.0677   -0.1878 C   0  0  0  0  0  0  0  0  0  0  0  0
   -1.4562   -0.4685   -0.0057 C   0  0  0  0  0  0  0  0  0  0  0  0
   -0.6152    0.7019    0.5099 C   0  0  0  0  0  0  0  0  0  0  0  0
    0.8479    0.3182    0.7253 C   0  0  0  0  0  0  0  0  0  0  0  0
    1.6346    0.1486   -0.5639 C   0  0  0  0  0  0  0  0  0  0  0  0
    1.1990    0.4880   -1.6629 O   0  0  0  0  0  0  0  0  0  0  0  0
    3.0172   -0.4341   -0.4248 C   0  0  0  0  0  0  0  0  0  0  0  0
   -3.4963   -0.9181   -0.5529 H   0  0  0  0  0  0  0  0  0  0  0  0
   -3.0066    0.7462   -0.9136 H   0  0  0  0  0  0  0  0  0  0  0  0
   -3.3495    0.2632    0.7595 H   0  0  0  0  0  0  0  0  0  0  0  0
   -1.0646   -0.8286   -0.9632 H   0  0  0  0  0  0  0  0  0  0  0  0
   -1.4008   -1.3048    0.7010 H   0  0  0  0  0  0  0  0  0  0  0  0
   -0.6885    1.5482   -0.1837 H   0  0  0  0  0  0  0  0  0  0  0  0
   -1.0293    1.0391    1.4682 H   0  0  0  0  0  0  0  0  0  0  0  0
    1.3445    1.1089    1.2993 H   0  0  0  0  0  0  0  0  0  0  0  0
    0.9119   -0.6120    1.3003 H   0  0  0  0  0  0  0  0  0  0  0  0
    3.4849   -0.5141   -1.4100 H   0  0  0  0  0  0  0  0  0  0  0  0
    2.9517   -1.4321    0.0155 H   0  0  0  0  0  0  0  0  0  0  0  0
    3.6272    0.2177    0.2054 H   0  0  0  0  0  0  0  0  0  0  0  0
  1  2  1  0
  2  3  1  0
  3  4  1  0
  4  5  1  0
  5  6  2  0
  5  7  1  0
  1  8  1  0
  1  9  1  0
  1 10  1  0
  2 11  1  0
  2 12  1  0
  3 13  1  0
  3 14  1  0
  4 15  1  0
  4 16  1  0
  7 17  1  0
  7 18  1  0
  7 19  1  0
M  END
>  <Energy>  (2) 
0.09211232116488566

>  <Real charge>  (2) 
0

>  <Mult>  (2) 
1

$$$$
mol_1010 200
     RDKit          3D

 19 18  0  0  0  0  0  0  0  0999 V2000
   -2.4537    0.2216    1.2446 C   0  0  0  0  0  0  0  0  0  0  0  0
   -1.2365   -0.5131    0.7047 C   0  0  0  0  0  0  0  0  0  0  0  0
   -0.6012    0.2425   -0.4644 C   0  0  0  0  0  0  0  0  0  0  0  0
    0.5889   -0.5008   -1.0632 C   0  0  0  0  0  0  0  0  0  0  0  0
    1.7665   -0.5942   -0.1138 C   0  0  0  0  0  0  0  0  0  0  0  0
    2.0943   -1.6673    0.3930 O   0  0  0  0  0  0  0  0  0  0  0  0
    2.5088    0.6776    0.2023 C   0  0  0  0  0  0  0  0  0  0  0  0
   -2.1815    1.2183    1.6063 H   0  0  0  0  0  0  0  0  0  0  0  0
   -2.8926   -0.3345    2.0789 H   0  0  0  0  0  0  0  0  0  0  0  0
   -3.2198    0.3336    0.4708 H   0  0  0  0  0  0  0  0  0  0  0  0
   -0.5098   -0.6377    1.5153 H   0  0  0  0  0  0  0  0  0  0  0  0
   -1.5372   -1.5161    0.3804 H   0  0  0  0  0  0  0  0  0  0  0  0
   -1.3526    0.3832   -1.2510 H   0  0  0  0  0  0  0  0  0  0  0  0
   -0.2981    1.2429   -0.1343 H   0  0  0  0  0  0  0  0  0  0  0  0
    0.2984   -1.5155   -1.3591 H   0  0  0  0  0  0  0  0  0  0  0  0
    0.9317    0.0062   -1.9722 H   0  0  0  0  0  0  0  0  0  0  0  0
    2.7425    1.2094   -0.7234 H   0  0  0  0  0  0  0  0  0  0  0  0
    1.9035    1.3077    0.8576 H   0  0  0  0  0  0  0  0  0  0  0  0
    3.4482    0.4363    0.7076 H   0  0  0  0  0  0  0  0  0  0  0  0
  1  2  1  0
  2  3  1  0
  3  4  1  0
  4  5  1  0
  5  6  2  0
  5  7  1  0
  1  8  1  0
  1  9  1  0
  1 10  1  0
  2 11  1  0
  2 12  1  0
  3 13  1  0
  3 14  1  0
  4 15  1  0
  4 16  1  0
  7 17  1  0
  7 18  1  0
  7 19  1  0
M  END
>  <Energy>  (3) 
0.6079780561379742

>  <Real charge>  (3) 
0

>  <Mult>  (3) 
1

$$$$
mol_1010 95
     RDKit          3D

 19 18  0  0  0  0  0  0  0  0999 V2000
   -2.8889    0.0970    0.3526 C   0  0  0  0  0  0  0  0  0  0  0  0
   -1.6322   -0.7332    0.1455 C   0  0  0  0  0  0  0  0  0  0  0  0
   -0.3882    0.1485    0.0482 C   0  0  0  0  0  0  0  0  0  0  0  0
    0.8690   -0.6881   -0.1575 C   0  0  0  0  0  0  0  0  0  0  0  0
    2.0882    0.1947   -0.3164 C   0  0  0  0  0  0  0  0  0  0  0  0
    2.5393    0.4685   -1.4285 O   0  0  0  0  0  0  0  0  0  0  0  0
    2.7042    0.7548    0.9387 C   0  0  0  0  0  0  0  0  0  0  0  0
   -3.0427    0.7906   -0.4802 H   0  0  0  0  0  0  0  0  0  0  0  0
   -2.8266    0.6790    1.2778 H   0  0  0  0  0  0  0  0  0  0  0  0
   -3.7664   -0.5537    0.4192 H   0  0  0  0  0  0  0  0  0  0  0  0
   -1.5250   -1.4375    0.9787 H   0  0  0  0  0  0  0  0  0  0  0  0
   -1.7407   -1.3269   -0.7697 H   0  0  0  0  0  0  0  0  0  0  0  0
   -0.2912    0.7493    0.9605 H   0  0  0  0  0  0  0  0  0  0  0  0
   -0.4992    0.8573   -0.7819 H   0  0  0  0  0  0  0  0  0  0  0  0
    1.0351   -1.3710    0.6830 H   0  0  0  0  0  0  0  0  0  0  0  0
    0.7787   -1.3067   -1.0582 H   0  0  0  0  0  0  0  0  0  0  0  0
    2.9337   -0.0592    1.6309 H   0  0  0  0  0  0  0  0  0  0  0  0
    3.6354    1.2719    0.6905 H   0  0  0  0  0  0  0  0  0  0  0  0
    2.0176    1.4647    1.4049 H   0  0  0  0  0  0  0  0  0  0  0  0
  1  2  1  0
  2  3  1  0
  3  4  1  0
  4  5  1  0
  5  6  2  0
  5  7  1  0
  1  8  1  0
  1  9  1  0
  1 10  1  0
  2 11  1  0
  2 12  1  0
  3 13  1  0
  3 14  1  0
  4 15  1  0
  4 16  1  0
  7 17  1  0
  7 18  1  0
  7 19  1  0
M  END
>  <Energy>  (4) 
0.7792301069826004

>  <Real charge>  (4) 
0

>  <Mult>  (4) 
1

$$$$
mol_1010 78
     RDKit          3D

 19 18  0  0  0  0  0  0  0  0999 V2000
   -2.4061    1.0409    0.0622 C   0  0  0  0  0  0  0  0  0  0  0  0
   -2.0069   -0.4266    0.0488 C   0  0  0  0  0  0  0  0  0  0  0  0
   -0.6014   -0.6712   -0.5033 C   0  0  0  0  0  0  0  0  0  0  0  0
    0.5026   -0.0706    0.3653 C   0  0  0  0  0  0  0  0  0  0  0  0
    1.8924   -0.4285   -0.1332 C   0  0  0  0  0  0  0  0  0  0  0  0
    2.0875   -1.0812   -1.1573 O   0  0  0  0  0  0  0  0  0  0  0  0
    3.0444    0.0728    0.6988 C   0  0  0  0  0  0  0  0  0  0  0  0
   -1.7924    1.6173    0.7607 H   0  0  0  0  0  0  0  0  0  0  0  0
   -3.4497    1.1431    0.3765 H   0  0  0  0  0  0  0  0  0  0  0  0
   -2.3074    1.4843   -0.9337 H   0  0  0  0  0  0  0  0  0  0  0  0
   -2.0859   -0.8353    1.0628 H   0  0  0  0  0  0  0  0  0  0  0  0
   -2.7243   -0.9771   -0.5714 H   0  0  0  0  0  0  0  0  0  0  0  0
   -0.4479   -1.7548   -0.5848 H   0  0  0  0  0  0  0  0  0  0  0  0
   -0.5300   -0.2724   -1.5230 H   0  0  0  0  0  0  0  0  0  0  0  0
    0.4297    1.0217    0.3761 H   0  0  0  0  0  0  0  0  0  0  0  0
    0.4093   -0.4397    1.3926 H   0  0  0  0  0  0  0  0  0  0  0  0
    3.9897   -0.2443    0.2495 H   0  0  0  0  0  0  0  0  0  0  0  0
    2.9763   -0.3428    1.7071 H   0  0  0  0  0  0  0  0  0  0  0  0
    3.0201    1.1645    0.7376 H   0  0  0  0  0  0  0  0  0  0  0  0
  1  2  1  0
  2  3  1  0
  3  4  1  0
  4  5  1  0
  5  6  2  0
  5  7  1  0
  1  8  1  0
  1  9  1  0
  1 10  1  0
  2 11  1  0
  2 12  1  0
  3 13  1  0
  3 14  1  0
  4 15  1  0
  4 16  1  0
  7 17  1  0
  7 18  1  0
  7 19  1  0
M  END
>  <Energy>  (5) 
0.7914058522884133

>  <Real charge>  (5) 
0

>  <Mult>  (5) 
1

$$$$
mol_1010 72
     RDKit          3D

 19 18  0  0  0  0  0  0  0  0999 V2000
    2.1664   -0.0202    1.1571 C   0  0  0  0  0  0  0  0  0  0  0  0
    1.5463   -0.8259    0.0258 C   0  0  0  0  0  0  0  0  0  0  0  0
    0.7211    0.0195   -0.9502 C   0  0  0  0  0  0  0  0  0  0  0  0
   -0.5098    0.6881   -0.3388 C   0  0  0  0  0  0  0  0  0  0  0  0
   -1.5996   -0.2882    0.0700 C   0  0  0  0  0  0  0  0  0  0  0  0
   -1.6277   -1.4564   -0.3138 O   0  0  0  0  0  0  0  0  0  0  0  0
   -2.6925    0.2658    0.9468 C   0  0  0  0  0  0  0  0  0  0  0  0
    2.7551    0.8165    0.7681 H   0  0  0  0  0  0  0  0  0  0  0  0
    2.8326   -0.6563    1.7489 H   0  0  0  0  0  0  0  0  0  0  0  0
    1.4034    0.3761    1.8331 H   0  0  0  0  0  0  0  0  0  0  0  0
    0.9364   -1.6320    0.4474 H   0  0  0  0  0  0  0  0  0  0  0  0
    2.3542   -1.3083   -0.5377 H   0  0  0  0  0  0  0  0  0  0  0  0
    1.3664    0.7984   -1.3750 H   0  0  0  0  0  0  0  0  0  0  0  0
    0.4125   -0.6184   -1.7876 H   0  0  0  0  0  0  0  0  0  0  0  0
   -0.2297    1.2899    0.5310 H   0  0  0  0  0  0  0  0  0  0  0  0
   -0.9525    1.3643   -1.0795 H   0  0  0  0  0  0  0  0  0  0  0  0
   -2.2615    0.6340    1.8810 H   0  0  0  0  0  0  0  0  0  0  0  0
   -3.4143   -0.5221    1.1793 H   0  0  0  0  0  0  0  0  0  0  0  0
   -3.2069    1.0751    0.4229 H   0  0  0  0  0  0  0  0  0  0  0  0
  1  2  1  0
  2  3  1  0
  3  4  1  0
  4  5  1  0
  5  6  2  0
  5  7  1  0
  1  8  1  0
  1  9  1  0
  1 10  1  0
  2 11  1  0
  2 12  1  0
  3 13  1  0
  3 14  1  0
  4 15  1  0
  4 16  1  0
  7 17  1  0
  7 18  1  0
  7 19  1  0
M  END
>  <Energy>  (6) 
0.9749595769082472

>  <Real charge>  (6) 
0

>  <Mult>  (6) 
1

$$$$
