mol_1079 40
     RDKit          3D

 13 13  0  0  0  0  0  0  0  0999 V2000
    2.4724    0.4477    0.1569 O   0  0  0  0  0  0  0  0  0  0  0  0
    1.1161    0.2355    0.0722 C   0  0  0  0  0  0  0  0  0  0  0  0
    0.2505    1.3396    0.0696 C   0  0  0  0  0  0  0  0  0  0  0  0
    0.9056    2.9407    0.1727 Cl  0  0  0  0  0  0  0  0  0  0  0  0
   -1.1314    1.1250   -0.0166 C   0  0  0  0  0  0  0  0  0  0  0  0
   -2.2750    2.4220   -0.0267 Cl  0  0  0  0  0  0  0  0  0  0  0  0
   -1.6390   -0.1757   -0.0990 C   0  0  0  0  0  0  0  0  0  0  0  0
   -0.7721   -1.2713   -0.0959 C   0  0  0  0  0  0  0  0  0  0  0  0
   -1.4742   -2.8464   -0.2006 Cl  0  0  0  0  0  0  0  0  0  0  0  0
    0.6098   -1.0703   -0.0103 C   0  0  0  0  0  0  0  0  0  0  0  0
    1.7274   -2.3946   -0.0028 Cl  0  0  0  0  0  0  0  0  0  0  0  0
    2.9238   -0.4176    0.1462 H   0  0  0  0  0  0  0  0  0  0  0  0
   -2.7138   -0.3345   -0.1657 H   0  0  0  0  0  0  0  0  0  0  0  0
  1  2  1  0
  2  3  2  0
  3  4  1  0
  3  5  1  0
  5  6  1  0
  5  7  2  0
  7  8  1  0
  8  9  1  0
  8 10  2  0
 10 11  1  0
 10  2  1  0
  1 12  1  0
  7 13  1  0
M  END
>  <Energy>  (1) 
36.08175109425125

>  <Real charge>  (1) 
0

>  <Mult>  (1) 
1

$$$$
