mol_246 399
     RDKit          3D

 34 34  0  0  0  0  0  0  0  0999 V2000
   -4.1087    1.1302    0.2500 C   0  0  0  0  0  0  0  0  0  0  0  0
   -3.3386    0.3296   -0.7904 C   0  0  0  0  0  0  0  0  0  0  0  0
   -2.0303   -0.0692   -0.2897 N   0  0  0  0  0  0  0  0  0  0  0  0
   -1.9041   -1.2988    0.4809 C   0  0  0  0  0  0  0  0  0  0  0  0
   -1.3037   -2.4071   -0.3716 C   0  0  0  0  0  0  0  0  0  0  0  0
   -0.9711    0.8148   -0.3442 C   0  0  0  0  0  0  0  0  0  0  0  0
   -1.1411    1.9802   -0.9462 N   0  0  0  0  0  0  0  0  0  0  0  0
   -0.0647    2.7494   -0.9547 C   0  0  0  0  0  0  0  0  0  0  0  0
   -0.2403    4.2658   -1.7264 Cl  0  0  0  0  0  0  0  0  0  0  0  0
    1.1320    2.4926   -0.4543 N   0  0  0  0  0  0  0  0  0  0  0  0
    1.2042    1.3121    0.1246 C   0  0  0  0  0  0  0  0  0  0  0  0
    2.4337    0.9909    0.6757 N   0  0  0  0  0  0  0  0  0  0  0  0
    2.8123   -0.4153    0.7180 C   0  0  0  0  0  0  0  0  0  0  0  0
    3.1906   -0.9196   -0.6746 C   0  0  0  0  0  0  0  0  0  0  0  0
    4.0020   -0.5573    1.6682 C   0  0  0  0  0  0  0  0  0  0  0  0
    0.1915    0.4556    0.1976 N   0  0  0  0  0  0  0  0  0  0  0  0
   -3.5897    2.0591    0.5069 H   0  0  0  0  0  0  0  0  0  0  0  0
   -4.2409    0.5556    1.1726 H   0  0  0  0  0  0  0  0  0  0  0  0
   -5.1003    1.3915   -0.1325 H   0  0  0  0  0  0  0  0  0  0  0  0
   -3.9184   -0.5658   -1.0472 H   0  0  0  0  0  0  0  0  0  0  0  0
   -3.2567    0.9006   -1.7233 H   0  0  0  0  0  0  0  0  0  0  0  0
   -1.3099   -1.1516    1.3912 H   0  0  0  0  0  0  0  0  0  0  0  0
   -2.8924   -1.6264    0.8270 H   0  0  0  0  0  0  0  0  0  0  0  0
   -1.9144   -2.5909   -1.2619 H   0  0  0  0  0  0  0  0  0  0  0  0
   -1.2478   -3.3377    0.2017 H   0  0  0  0  0  0  0  0  0  0  0  0
   -0.2926   -2.1547   -0.7065 H   0  0  0  0  0  0  0  0  0  0  0  0
    3.1236    1.6284    0.2934 H   0  0  0  0  0  0  0  0  0  0  0  0
    1.9979   -1.0301    1.1212 H   0  0  0  0  0  0  0  0  0  0  0  0
    4.0009   -0.3227   -1.1083 H   0  0  0  0  0  0  0  0  0  0  0  0
    2.3393   -0.8684   -1.3616 H   0  0  0  0  0  0  0  0  0  0  0  0
    3.5212   -1.9628   -0.6333 H   0  0  0  0  0  0  0  0  0  0  0  0
    3.7406   -0.2045    2.6720 H   0  0  0  0  0  0  0  0  0  0  0  0
    4.8611    0.0303    1.3250 H   0  0  0  0  0  0  0  0  0  0  0  0
    4.3149   -1.6036    1.7486 H   0  0  0  0  0  0  0  0  0  0  0  0
  1  2  1  0
  2  3  1  0
  3  4  1  0
  4  5  1  0
  3  6  1  0
  6  7  2  0
  7  8  1  0
  8  9  1  0
  8 10  2  0
 10 11  1  0
 11 12  1  0
 12 13  1  0
 13 14  1  0
 13 15  1  0
 11 16  2  0
 16  6  1  0
  1 17  1  0
  1 18  1  0
  1 19  1  0
  2 20  1  0
  2 21  1  0
  4 22  1  0
  4 23  1  0
  5 24  1  0
  5 25  1  0
  5 26  1  0
 12 27  1  0
 13 28  1  0
 14 29  1  0
 14 30  1  0
 14 31  1  0
 15 32  1  0
 15 33  1  0
 15 34  1  0
M  END
>  <Energy>  (1) 
-226.94384209841047

>  <Real charge>  (1) 
0

>  <Mult>  (1) 
1

$$$$
mol_246 75
     RDKit          3D

 34 34  0  0  0  0  0  0  0  0999 V2000
   -3.9812   -1.0614   -0.1835 C   0  0  0  0  0  0  0  0  0  0  0  0
   -2.9250   -1.1520   -1.2750 C   0  0  0  0  0  0  0  0  0  0  0  0
   -1.7322   -0.4064   -0.8977 N   0  0  0  0  0  0  0  0  0  0  0  0
   -1.5140    0.9224   -1.4515 C   0  0  0  0  0  0  0  0  0  0  0  0
   -0.7668    0.8524   -2.7755 C   0  0  0  0  0  0  0  0  0  0  0  0
   -0.7341   -1.0227   -0.1704 C   0  0  0  0  0  0  0  0  0  0  0  0
   -0.9283   -2.2575    0.2623 N   0  0  0  0  0  0  0  0  0  0  0  0
    0.0828   -2.7557    0.9549 C   0  0  0  0  0  0  0  0  0  0  0  0
   -0.1300   -4.3490    1.5399 Cl  0  0  0  0  0  0  0  0  0  0  0  0
    1.2311   -2.1773    1.2629 N   0  0  0  0  0  0  0  0  0  0  0  0
    1.3338   -0.9536    0.7876 C   0  0  0  0  0  0  0  0  0  0  0  0
    2.5239   -0.3028    1.0672 N   0  0  0  0  0  0  0  0  0  0  0  0
    2.4933    1.1481    1.1920 C   0  0  0  0  0  0  0  0  0  0  0  0
    3.9331    1.6597    1.1289 C   0  0  0  0  0  0  0  0  0  0  0  0
    1.8457    1.5667    2.5118 C   0  0  0  0  0  0  0  0  0  0  0  0
    0.3858   -0.3468    0.0819 N   0  0  0  0  0  0  0  0  0  0  0  0
   -4.2491   -0.0187    0.0173 H   0  0  0  0  0  0  0  0  0  0  0  0
   -3.6281   -1.5022    0.7542 H   0  0  0  0  0  0  0  0  0  0  0  0
   -4.8876   -1.5938   -0.4883 H   0  0  0  0  0  0  0  0  0  0  0  0
   -3.3457   -0.7394   -2.2005 H   0  0  0  0  0  0  0  0  0  0  0  0
   -2.6975   -2.2012   -1.5000 H   0  0  0  0  0  0  0  0  0  0  0  0
   -2.4817    1.4119   -1.6183 H   0  0  0  0  0  0  0  0  0  0  0  0
   -0.9779    1.5708   -0.7475 H   0  0  0  0  0  0  0  0  0  0  0  0
   -0.6430    1.8565   -3.1930 H   0  0  0  0  0  0  0  0  0  0  0  0
   -1.3127    0.2455   -3.5053 H   0  0  0  0  0  0  0  0  0  0  0  0
    0.2278    0.4122   -2.6525 H   0  0  0  0  0  0  0  0  0  0  0  0
    2.9879   -0.8066    1.8150 H   0  0  0  0  0  0  0  0  0  0  0  0
    1.9486    1.6039    0.3558 H   0  0  0  0  0  0  0  0  0  0  0  0
    3.9630    2.7519    1.2015 H   0  0  0  0  0  0  0  0  0  0  0  0
    4.5409    1.2468    1.9421 H   0  0  0  0  0  0  0  0  0  0  0  0
    4.4060    1.3705    0.1838 H   0  0  0  0  0  0  0  0  0  0  0  0
    1.8664    2.6556    2.6264 H   0  0  0  0  0  0  0  0  0  0  0  0
    2.3657    1.1245    3.3691 H   0  0  0  0  0  0  0  0  0  0  0  0
    0.7992    1.2476    2.5606 H   0  0  0  0  0  0  0  0  0  0  0  0
  1  2  1  0
  2  3  1  0
  3  4  1  0
  4  5  1  0
  3  6  1  0
  6  7  2  0
  7  8  1  0
  8  9  1  0
  8 10  2  0
 10 11  1  0
 11 12  1  0
 12 13  1  0
 13 14  1  0
 13 15  1  0
 11 16  2  0
 16  6  1  0
  1 17  1  0
  1 18  1  0
  1 19  1  0
  2 20  1  0
  2 21  1  0
  4 22  1  0
  4 23  1  0
  5 24  1  0
  5 25  1  0
  5 26  1  0
 12 27  1  0
 13 28  1  0
 14 29  1  0
 14 30  1  0
 14 31  1  0
 15 32  1  0
 15 33  1  0
 15 34  1  0
M  END
>  <Energy>  (2) 
-226.80825813110627

>  <Real charge>  (2) 
0

>  <Mult>  (2) 
1

$$$$
mol_246 386
     RDKit          3D

 34 34  0  0  0  0  0  0  0  0999 V2000
    2.3936    1.4450    1.7097 C   0  0  0  0  0  0  0  0  0  0  0  0
    2.6162    1.0509    0.2570 C   0  0  0  0  0  0  0  0  0  0  0  0
    2.2864   -0.3521    0.0495 N   0  0  0  0  0  0  0  0  0  0  0  0
    3.3582   -1.3363   -0.0137 C   0  0  0  0  0  0  0  0  0  0  0  0
    3.8900   -1.4821   -1.4322 C   0  0  0  0  0  0  0  0  0  0  0  0
    0.9932   -0.7160   -0.2674 C   0  0  0  0  0  0  0  0  0  0  0  0
    0.7393   -1.9824   -0.5536 N   0  0  0  0  0  0  0  0  0  0  0  0
   -0.5281   -2.2321   -0.8389 C   0  0  0  0  0  0  0  0  0  0  0  0
   -0.9013   -3.8594   -1.2097 Cl  0  0  0  0  0  0  0  0  0  0  0  0
   -1.5440   -1.3881   -0.8614 N   0  0  0  0  0  0  0  0  0  0  0  0
   -1.1951   -0.1529   -0.5638 C   0  0  0  0  0  0  0  0  0  0  0  0
   -2.1383    0.8613   -0.5529 N   0  0  0  0  0  0  0  0  0  0  0  0
   -3.5080    0.5152   -0.1968 C   0  0  0  0  0  0  0  0  0  0  0  0
   -4.4123    1.6784   -0.6066 C   0  0  0  0  0  0  0  0  0  0  0  0
   -3.6305    0.2601    1.3054 C   0  0  0  0  0  0  0  0  0  0  0  0
    0.0431    0.2193   -0.2610 N   0  0  0  0  0  0  0  0  0  0  0  0
    2.9958    0.8238    2.3812 H   0  0  0  0  0  0  0  0  0  0  0  0
    2.6771    2.4904    1.8664 H   0  0  0  0  0  0  0  0  0  0  0  0
    1.3444    1.3310    2.0004 H   0  0  0  0  0  0  0  0  0  0  0  0
    2.0442    1.7085   -0.4091 H   0  0  0  0  0  0  0  0  0  0  0  0
    3.6698    1.2277    0.0072 H   0  0  0  0  0  0  0  0  0  0  0  0
    3.0353   -2.3110    0.3721 H   0  0  0  0  0  0  0  0  0  0  0  0
    4.1810   -1.0224    0.6409 H   0  0  0  0  0  0  0  0  0  0  0  0
    3.1139   -1.8378   -2.1174 H   0  0  0  0  0  0  0  0  0  0  0  0
    4.2607   -0.5256   -1.8153 H   0  0  0  0  0  0  0  0  0  0  0  0
    4.7158   -2.2001   -1.4543 H   0  0  0  0  0  0  0  0  0  0  0  0
   -1.7348    1.6497   -0.0589 H   0  0  0  0  0  0  0  0  0  0  0  0
   -3.8462   -0.3711   -0.7479 H   0  0  0  0  0  0  0  0  0  0  0  0
   -4.3371    1.8670   -1.6833 H   0  0  0  0  0  0  0  0  0  0  0  0
   -5.4597    1.4595   -0.3742 H   0  0  0  0  0  0  0  0  0  0  0  0
   -4.1341    2.6036   -0.0892 H   0  0  0  0  0  0  0  0  0  0  0  0
   -3.2970    1.1279    1.8857 H   0  0  0  0  0  0  0  0  0  0  0  0
   -4.6690    0.0465    1.5797 H   0  0  0  0  0  0  0  0  0  0  0  0
   -3.0223   -0.5965    1.6145 H   0  0  0  0  0  0  0  0  0  0  0  0
  1  2  1  0
  2  3  1  0
  3  4  1  0
  4  5  1  0
  3  6  1  0
  6  7  2  0
  7  8  1  0
  8  9  1  0
  8 10  2  0
 10 11  1  0
 11 12  1  0
 12 13  1  0
 13 14  1  0
 13 15  1  0
 11 16  2  0
 16  6  1  0
  1 17  1  0
  1 18  1  0
  1 19  1  0
  2 20  1  0
  2 21  1  0
  4 22  1  0
  4 23  1  0
  5 24  1  0
  5 25  1  0
  5 26  1  0
 12 27  1  0
 13 28  1  0
 14 29  1  0
 14 30  1  0
 14 31  1  0
 15 32  1  0
 15 33  1  0
 15 34  1  0
M  END
>  <Energy>  (3) 
-226.75868402403609

>  <Real charge>  (3) 
0

>  <Mult>  (3) 
1

$$$$
mol_246 374
     RDKit          3D

 34 34  0  0  0  0  0  0  0  0999 V2000
   -3.6076   -2.2452   -0.1148 C   0  0  0  0  0  0  0  0  0  0  0  0
   -3.4295   -0.9449    0.6551 C   0  0  0  0  0  0  0  0  0  0  0  0
   -2.2930   -0.1942    0.1384 N   0  0  0  0  0  0  0  0  0  0  0  0
   -2.5274    0.9288   -0.7582 C   0  0  0  0  0  0  0  0  0  0  0  0
   -2.7402    2.2199    0.0190 C   0  0  0  0  0  0  0  0  0  0  0  0
   -1.0285   -0.4248    0.6415 C   0  0  0  0  0  0  0  0  0  0  0  0
   -0.8591   -1.4018    1.5173 N   0  0  0  0  0  0  0  0  0  0  0  0
    0.3874   -1.5472    1.9358 C   0  0  0  0  0  0  0  0  0  0  0  0
    0.6524   -2.8058    3.0630 Cl  0  0  0  0  0  0  0  0  0  0  0  0
    1.4552   -0.8533    1.5848 N   0  0  0  0  0  0  0  0  0  0  0  0
    1.1889    0.0966    0.7115 C   0  0  0  0  0  0  0  0  0  0  0  0
    2.1951    0.9274    0.2472 N   0  0  0  0  0  0  0  0  0  0  0  0
    3.5443    0.3843    0.1622 C   0  0  0  0  0  0  0  0  0  0  0  0
    4.5156    1.5530   -0.0082 C   0  0  0  0  0  0  0  0  0  0  0  0
    3.6690   -0.5775   -1.0194 C   0  0  0  0  0  0  0  0  0  0  0  0
   -0.0200    0.3370    0.2172 N   0  0  0  0  0  0  0  0  0  0  0  0
   -2.7353   -2.8978   -0.0076 H   0  0  0  0  0  0  0  0  0  0  0  0
   -4.4839   -2.7871    0.2543 H   0  0  0  0  0  0  0  0  0  0  0  0
   -3.7510   -2.0517   -1.1831 H   0  0  0  0  0  0  0  0  0  0  0  0
   -3.3325   -1.1468    1.7289 H   0  0  0  0  0  0  0  0  0  0  0  0
   -4.3468   -0.3520    0.5513 H   0  0  0  0  0  0  0  0  0  0  0  0
   -1.7079    1.0500   -1.4772 H   0  0  0  0  0  0  0  0  0  0  0  0
   -3.4199    0.7314   -1.3652 H   0  0  0  0  0  0  0  0  0  0  0  0
   -3.5861    2.1309    0.7086 H   0  0  0  0  0  0  0  0  0  0  0  0
   -2.9479    3.0453   -0.6690 H   0  0  0  0  0  0  0  0  0  0  0  0
   -1.8561    2.4844    0.6078 H   0  0  0  0  0  0  0  0  0  0  0  0
    1.8488    1.3945   -0.5836 H   0  0  0  0  0  0  0  0  0  0  0  0
    3.8186   -0.1357    1.0885 H   0  0  0  0  0  0  0  0  0  0  0  0
    4.4393    2.2467    0.8364 H   0  0  0  0  0  0  0  0  0  0  0  0
    4.3033    2.1203   -0.9216 H   0  0  0  0  0  0  0  0  0  0  0  0
    5.5498    1.1969   -0.0607 H   0  0  0  0  0  0  0  0  0  0  0  0
    3.0112   -1.4446   -0.8979 H   0  0  0  0  0  0  0  0  0  0  0  0
    3.3988   -0.0882   -1.9620 H   0  0  0  0  0  0  0  0  0  0  0  0
    4.6951   -0.9490   -1.1112 H   0  0  0  0  0  0  0  0  0  0  0  0
  1  2  1  0
  2  3  1  0
  3  4  1  0
  4  5  1  0
  3  6  1  0
  6  7  2  0
  7  8  1  0
  8  9  1  0
  8 10  2  0
 10 11  1  0
 11 12  1  0
 12 13  1  0
 13 14  1  0
 13 15  1  0
 11 16  2  0
 16  6  1  0
  1 17  1  0
  1 18  1  0
  1 19  1  0
  2 20  1  0
  2 21  1  0
  4 22  1  0
  4 23  1  0
  5 24  1  0
  5 25  1  0
  5 26  1  0
 12 27  1  0
 13 28  1  0
 14 29  1  0
 14 30  1  0
 14 31  1  0
 15 32  1  0
 15 33  1  0
 15 34  1  0
M  END
>  <Energy>  (4) 
-226.73701857813182

>  <Real charge>  (4) 
0

>  <Mult>  (4) 
1

$$$$
mol_246 156
     RDKit          3D

 34 34  0  0  0  0  0  0  0  0999 V2000
   -3.5745   -1.6421   -0.7925 C   0  0  0  0  0  0  0  0  0  0  0  0
   -3.4141   -0.1302   -0.7306 C   0  0  0  0  0  0  0  0  0  0  0  0
   -2.1201    0.2503   -0.1797 N   0  0  0  0  0  0  0  0  0  0  0  0
   -2.0024    0.6213    1.2241 C   0  0  0  0  0  0  0  0  0  0  0  0
   -1.4974   -0.5375    2.0717 C   0  0  0  0  0  0  0  0  0  0  0  0
   -1.0039    0.2742   -0.9922 C   0  0  0  0  0  0  0  0  0  0  0  0
   -1.1338   -0.0528   -2.2674 N   0  0  0  0  0  0  0  0  0  0  0  0
   -0.0068   -0.0034   -2.9587 C   0  0  0  0  0  0  0  0  0  0  0  0
   -0.1288   -0.4294   -4.6109 Cl  0  0  0  0  0  0  0  0  0  0  0  0
    1.2036    0.3173   -2.5342 N   0  0  0  0  0  0  0  0  0  0  0  0
    1.2328    0.6319   -1.2559 C   0  0  0  0  0  0  0  0  0  0  0  0
    2.4748    0.9872   -0.7563 N   0  0  0  0  0  0  0  0  0  0  0  0
    2.7501    0.7027    0.6456 C   0  0  0  0  0  0  0  0  0  0  0  0
    3.9957    1.4904    1.0534 C   0  0  0  0  0  0  0  0  0  0  0  0
    2.9813   -0.7928    0.8621 C   0  0  0  0  0  0  0  0  0  0  0  0
    0.1679    0.6207   -0.4619 N   0  0  0  0  0  0  0  0  0  0  0  0
   -4.5514   -1.8999   -1.2137 H   0  0  0  0  0  0  0  0  0  0  0  0
   -3.5106   -2.0884    0.2044 H   0  0  0  0  0  0  0  0  0  0  0  0
   -2.8048   -2.1065   -1.4167 H   0  0  0  0  0  0  0  0  0  0  0  0
   -4.2212    0.2794   -0.1109 H   0  0  0  0  0  0  0  0  0  0  0  0
   -3.5656    0.3052   -1.7262 H   0  0  0  0  0  0  0  0  0  0  0  0
   -1.3479    1.4929    1.3507 H   0  0  0  0  0  0  0  0  0  0  0  0
   -2.9789    0.9351    1.6127 H   0  0  0  0  0  0  0  0  0  0  0  0
   -1.4167   -0.2299    3.1191 H   0  0  0  0  0  0  0  0  0  0  0  0
   -0.5111   -0.8809    1.7447 H   0  0  0  0  0  0  0  0  0  0  0  0
   -2.1808   -1.3904    2.0240 H   0  0  0  0  0  0  0  0  0  0  0  0
    3.1779    0.6835   -1.4210 H   0  0  0  0  0  0  0  0  0  0  0  0
    1.9258    1.0420    1.2854 H   0  0  0  0  0  0  0  0  0  0  0  0
    4.8670    1.1998    0.4554 H   0  0  0  0  0  0  0  0  0  0  0  0
    3.8394    2.5651    0.9083 H   0  0  0  0  0  0  0  0  0  0  0  0
    4.2354    1.3232    2.1088 H   0  0  0  0  0  0  0  0  0  0  0  0
    2.0863   -1.3740    0.6164 H   0  0  0  0  0  0  0  0  0  0  0  0
    3.2344   -0.9992    1.9074 H   0  0  0  0  0  0  0  0  0  0  0  0
    3.7988   -1.1648    0.2343 H   0  0  0  0  0  0  0  0  0  0  0  0
  1  2  1  0
  2  3  1  0
  3  4  1  0
  4  5  1  0
  3  6  1  0
  6  7  2  0
  7  8  1  0
  8  9  1  0
  8 10  2  0
 10 11  1  0
 11 12  1  0
 12 13  1  0
 13 14  1  0
 13 15  1  0
 11 16  2  0
 16  6  1  0
  1 17  1  0
  1 18  1  0
  1 19  1  0
  2 20  1  0
  2 21  1  0
  4 22  1  0
  4 23  1  0
  5 24  1  0
  5 25  1  0
  5 26  1  0
 12 27  1  0
 13 28  1  0
 14 29  1  0
 14 30  1  0
 14 31  1  0
 15 32  1  0
 15 33  1  0
 15 34  1  0
M  END
>  <Energy>  (5) 
-226.4084265264122

>  <Real charge>  (5) 
0

>  <Mult>  (5) 
1

$$$$
mol_246 396
     RDKit          3D

 34 34  0  0  0  0  0  0  0  0999 V2000
   -4.1308    0.6393    0.1003 C   0  0  0  0  0  0  0  0  0  0  0  0
   -3.2160    0.1288    1.2040 C   0  0  0  0  0  0  0  0  0  0  0  0
   -1.9060   -0.2520    0.6918 N   0  0  0  0  0  0  0  0  0  0  0  0
   -1.6232   -1.6436    0.3651 C   0  0  0  0  0  0  0  0  0  0  0  0
   -1.8039   -1.9281   -1.1189 C   0  0  0  0  0  0  0  0  0  0  0  0
   -0.9472    0.7153    0.4630 C   0  0  0  0  0  0  0  0  0  0  0  0
   -1.2321    1.9765    0.7424 N   0  0  0  0  0  0  0  0  0  0  0  0
   -0.2492    2.8250    0.4889 C   0  0  0  0  0  0  0  0  0  0  0  0
   -0.5754    4.4671    0.8398 Cl  0  0  0  0  0  0  0  0  0  0  0  0
    0.9560    2.5662    0.0109 N   0  0  0  0  0  0  0  0  0  0  0  0
    1.1466    1.2871   -0.2367 C   0  0  0  0  0  0  0  0  0  0  0  0
    2.3884    0.9579   -0.7538 N   0  0  0  0  0  0  0  0  0  0  0  0
    2.9247   -0.3621   -0.4515 C   0  0  0  0  0  0  0  0  0  0  0  0
    4.0890   -0.6307   -1.4058 C   0  0  0  0  0  0  0  0  0  0  0  0
    3.4069   -0.4340    0.9973 C   0  0  0  0  0  0  0  0  0  0  0  0
    0.2367    0.3434   -0.0216 N   0  0  0  0  0  0  0  0  0  0  0  0
   -5.0991    0.9304    0.5199 H   0  0  0  0  0  0  0  0  0  0  0  0
   -4.3117   -0.1320   -0.6538 H   0  0  0  0  0  0  0  0  0  0  0  0
   -3.7077    1.5114   -0.4077 H   0  0  0  0  0  0  0  0  0  0  0  0
   -3.6957   -0.7341    1.6821 H   0  0  0  0  0  0  0  0  0  0  0  0
   -3.1262    0.8834    1.9954 H   0  0  0  0  0  0  0  0  0  0  0  0
   -0.6103   -1.9245    0.6800 H   0  0  0  0  0  0  0  0  0  0  0  0
   -2.2935   -2.3035    0.9293 H   0  0  0  0  0  0  0  0  0  0  0  0
   -1.5739   -2.9772   -1.3305 H   0  0  0  0  0  0  0  0  0  0  0  0
   -2.8336   -1.7410   -1.4367 H   0  0  0  0  0  0  0  0  0  0  0  0
   -1.1457   -1.3083   -1.7354 H   0  0  0  0  0  0  0  0  0  0  0  0
    3.0118    1.7420   -0.5959 H   0  0  0  0  0  0  0  0  0  0  0  0
    2.1731   -1.1420   -0.6266 H   0  0  0  0  0  0  0  0  0  0  0  0
    3.7537   -0.5876   -2.4480 H   0  0  0  0  0  0  0  0  0  0  0  0
    4.5175   -1.6228   -1.2295 H   0  0  0  0  0  0  0  0  0  0  0  0
    4.8859    0.1118   -1.2843 H   0  0  0  0  0  0  0  0  0  0  0  0
    2.5798   -0.2870    1.6999 H   0  0  0  0  0  0  0  0  0  0  0  0
    4.1580    0.3360    1.2062 H   0  0  0  0  0  0  0  0  0  0  0  0
    3.8534   -1.4112    1.2099 H   0  0  0  0  0  0  0  0  0  0  0  0
  1  2  1  0
  2  3  1  0
  3  4  1  0
  4  5  1  0
  3  6  1  0
  6  7  2  0
  7  8  1  0
  8  9  1  0
  8 10  2  0
 10 11  1  0
 11 12  1  0
 12 13  1  0
 13 14  1  0
 13 15  1  0
 11 16  2  0
 16  6  1  0
  1 17  1  0
  1 18  1  0
  1 19  1  0
  2 20  1  0
  2 21  1  0
  4 22  1  0
  4 23  1  0
  5 24  1  0
  5 25  1  0
  5 26  1  0
 12 27  1  0
 13 28  1  0
 14 29  1  0
 14 30  1  0
 14 31  1  0
 15 32  1  0
 15 33  1  0
 15 34  1  0
M  END
>  <Energy>  (6) 
-226.2693290096818

>  <Real charge>  (6) 
0

>  <Mult>  (6) 
1

$$$$
mol_246 313
     RDKit          3D

 34 34  0  0  0  0  0  0  0  0999 V2000
   -3.4311   -2.2650    0.5968 C   0  0  0  0  0  0  0  0  0  0  0  0
   -3.1277   -1.6739   -0.7722 C   0  0  0  0  0  0  0  0  0  0  0  0
   -2.1825   -0.5683   -0.6829 N   0  0  0  0  0  0  0  0  0  0  0  0
   -2.6637    0.8067   -0.6889 C   0  0  0  0  0  0  0  0  0  0  0  0
   -2.7574    1.3748    0.7197 C   0  0  0  0  0  0  0  0  0  0  0  0
   -0.8274   -0.8237   -0.6098 C   0  0  0  0  0  0  0  0  0  0  0  0
   -0.4136   -2.0803   -0.6211 N   0  0  0  0  0  0  0  0  0  0  0  0
    0.8996   -2.2218   -0.5457 C   0  0  0  0  0  0  0  0  0  0  0  0
    1.4760   -3.8319   -0.5440 Cl  0  0  0  0  0  0  0  0  0  0  0  0
    1.8208   -1.2795   -0.4551 N   0  0  0  0  0  0  0  0  0  0  0  0
    1.3156   -0.0627   -0.4557 C   0  0  0  0  0  0  0  0  0  0  0  0
    2.1455    1.0435   -0.3804 N   0  0  0  0  0  0  0  0  0  0  0  0
    3.3989    0.9079    0.3496 C   0  0  0  0  0  0  0  0  0  0  0  0
    3.1485    0.8788    1.8573 C   0  0  0  0  0  0  0  0  0  0  0  0
    4.2887    2.0981   -0.0113 C   0  0  0  0  0  0  0  0  0  0  0  0
    0.0168    0.2049   -0.5262 N   0  0  0  0  0  0  0  0  0  0  0  0
   -3.8777   -1.5187    1.2605 H   0  0  0  0  0  0  0  0  0  0  0  0
   -4.1389   -3.0944    0.4999 H   0  0  0  0  0  0  0  0  0  0  0  0
   -2.5282   -2.6472    1.0831 H   0  0  0  0  0  0  0  0  0  0  0  0
   -2.7601   -2.4570   -1.4471 H   0  0  0  0  0  0  0  0  0  0  0  0
   -4.0688   -1.3284   -1.2171 H   0  0  0  0  0  0  0  0  0  0  0  0
   -2.0267    1.4476   -1.3113 H   0  0  0  0  0  0  0  0  0  0  0  0
   -3.6581    0.8547   -1.1493 H   0  0  0  0  0  0  0  0  0  0  0  0
   -1.7865    1.3708    1.2246 H   0  0  0  0  0  0  0  0  0  0  0  0
   -3.4558    0.7983    1.3336 H   0  0  0  0  0  0  0  0  0  0  0  0
   -3.1155    2.4086    0.6851 H   0  0  0  0  0  0  0  0  0  0  0  0
    1.5708    1.8424   -0.1358 H   0  0  0  0  0  0  0  0  0  0  0  0
    3.9331   -0.0021    0.0492 H   0  0  0  0  0  0  0  0  0  0  0  0
    2.5469    0.0098    2.1442 H   0  0  0  0  0  0  0  0  0  0  0  0
    4.0940    0.8245    2.4071 H   0  0  0  0  0  0  0  0  0  0  0  0
    2.6126    1.7751    2.1898 H   0  0  0  0  0  0  0  0  0  0  0  0
    4.4798    2.1261   -1.0899 H   0  0  0  0  0  0  0  0  0  0  0  0
    5.2541    2.0338    0.5014 H   0  0  0  0  0  0  0  0  0  0  0  0
    3.8180    3.0484    0.2652 H   0  0  0  0  0  0  0  0  0  0  0  0
  1  2  1  0
  2  3  1  0
  3  4  1  0
  4  5  1  0
  3  6  1  0
  6  7  2  0
  7  8  1  0
  8  9  1  0
  8 10  2  0
 10 11  1  0
 11 12  1  0
 12 13  1  0
 13 14  1  0
 13 15  1  0
 11 16  2  0
 16  6  1  0
  1 17  1  0
  1 18  1  0
  1 19  1  0
  2 20  1  0
  2 21  1  0
  4 22  1  0
  4 23  1  0
  5 24  1  0
  5 25  1  0
  5 26  1  0
 12 27  1  0
 13 28  1  0
 14 29  1  0
 14 30  1  0
 14 31  1  0
 15 32  1  0
 15 33  1  0
 15 34  1  0
M  END
>  <Energy>  (7) 
-226.20829260362964

>  <Real charge>  (7) 
0

>  <Mult>  (7) 
1

$$$$
mol_246 322
     RDKit          3D

 34 34  0  0  0  0  0  0  0  0999 V2000
   -3.8198   -1.1267   -1.5811 C   0  0  0  0  0  0  0  0  0  0  0  0
   -3.1947   -1.6375   -0.2911 C   0  0  0  0  0  0  0  0  0  0  0  0
   -2.1888   -0.7189    0.2274 N   0  0  0  0  0  0  0  0  0  0  0  0
   -2.5446    0.2513    1.2546 C   0  0  0  0  0  0  0  0  0  0  0  0
   -2.8623    1.6165    0.6619 C   0  0  0  0  0  0  0  0  0  0  0  0
   -0.9102   -0.7313   -0.2948 C   0  0  0  0  0  0  0  0  0  0  0  0
   -0.6193   -1.6005   -1.2488 N   0  0  0  0  0  0  0  0  0  0  0  0
    0.6279   -1.5332   -1.6847 C   0  0  0  0  0  0  0  0  0  0  0  0
    1.0474   -2.6442   -2.9155 Cl  0  0  0  0  0  0  0  0  0  0  0  0
    1.5938   -0.7274   -1.2817 N   0  0  0  0  0  0  0  0  0  0  0  0
    1.2118    0.1000   -0.3304 C   0  0  0  0  0  0  0  0  0  0  0  0
    2.0994    1.0228    0.1974 N   0  0  0  0  0  0  0  0  0  0  0  0
    3.5127    0.6709    0.2293 C   0  0  0  0  0  0  0  0  0  0  0  0
    4.3130    1.9471    0.4924 C   0  0  0  0  0  0  0  0  0  0  0  0
    3.7913   -0.3578    1.3252 C   0  0  0  0  0  0  0  0  0  0  0  0
   -0.0106    0.1262    0.1879 N   0  0  0  0  0  0  0  0  0  0  0  0
   -4.3324   -0.1735   -1.4235 H   0  0  0  0  0  0  0  0  0  0  0  0
   -4.5576   -1.8458   -1.9511 H   0  0  0  0  0  0  0  0  0  0  0  0
   -3.0710   -0.9784   -2.3652 H   0  0  0  0  0  0  0  0  0  0  0  0
   -2.7715   -2.6373   -0.4499 H   0  0  0  0  0  0  0  0  0  0  0  0
   -3.9912   -1.7766    0.4501 H   0  0  0  0  0  0  0  0  0  0  0  0
   -3.4226   -0.0984    1.8114 H   0  0  0  0  0  0  0  0  0  0  0  0
   -1.7473    0.3438    2.0026 H   0  0  0  0  0  0  0  0  0  0  0  0
   -2.0144    2.0252    0.1038 H   0  0  0  0  0  0  0  0  0  0  0  0
   -3.1124    2.3230    1.4598 H   0  0  0  0  0  0  0  0  0  0  0  0
   -3.7170    1.5649   -0.0187 H   0  0  0  0  0  0  0  0  0  0  0  0
    1.7050    1.3673    1.0658 H   0  0  0  0  0  0  0  0  0  0  0  0
    3.8414    0.2731   -0.7388 H   0  0  0  0  0  0  0  0  0  0  0  0
    5.3877    1.7377    0.5093 H   0  0  0  0  0  0  0  0  0  0  0  0
    4.1256    2.6904   -0.2904 H   0  0  0  0  0  0  0  0  0  0  0  0
    4.0388    2.4013    1.4514 H   0  0  0  0  0  0  0  0  0  0  0  0
    3.2598   -1.2962    1.1345 H   0  0  0  0  0  0  0  0  0  0  0  0
    4.8608   -0.5869    1.3800 H   0  0  0  0  0  0  0  0  0  0  0  0
    3.4712    0.0089    2.3070 H   0  0  0  0  0  0  0  0  0  0  0  0
  1  2  1  0
  2  3  1  0
  3  4  1  0
  4  5  1  0
  3  6  1  0
  6  7  2  0
  7  8  1  0
  8  9  1  0
  8 10  2  0
 10 11  1  0
 11 12  1  0
 12 13  1  0
 13 14  1  0
 13 15  1  0
 11 16  2  0
 16  6  1  0
  1 17  1  0
  1 18  1  0
  1 19  1  0
  2 20  1  0
  2 21  1  0
  4 22  1  0
  4 23  1  0
  5 24  1  0
  5 25  1  0
  5 26  1  0
 12 27  1  0
 13 28  1  0
 14 29  1  0
 14 30  1  0
 14 31  1  0
 15 32  1  0
 15 33  1  0
 15 34  1  0
M  END
>  <Energy>  (8) 
-226.18909713430278

>  <Real charge>  (8) 
0

>  <Mult>  (8) 
1

$$$$
mol_246 316
     RDKit          3D

 34 34  0  0  0  0  0  0  0  0999 V2000
   -3.7267    1.1713    1.5322 C   0  0  0  0  0  0  0  0  0  0  0  0
   -3.3525   -0.1225    0.8228 C   0  0  0  0  0  0  0  0  0  0  0  0
   -2.0335   -0.0337    0.2099 N   0  0  0  0  0  0  0  0  0  0  0  0
   -1.9008    0.5745   -1.1079 C   0  0  0  0  0  0  0  0  0  0  0  0
   -1.6244   -0.4862   -2.1635 C   0  0  0  0  0  0  0  0  0  0  0  0
   -0.9044   -0.2276    0.9828 C   0  0  0  0  0  0  0  0  0  0  0  0
   -1.0477   -0.6244    2.2364 N   0  0  0  0  0  0  0  0  0  0  0  0
    0.0920   -0.7898    2.8876 C   0  0  0  0  0  0  0  0  0  0  0  0
   -0.0479   -1.3039    4.5130 Cl  0  0  0  0  0  0  0  0  0  0  0  0
    1.3250   -0.6196    2.4410 N   0  0  0  0  0  0  0  0  0  0  0  0
    1.3673   -0.2256    1.1852 C   0  0  0  0  0  0  0  0  0  0  0  0
    2.6403   -0.0219    0.6675 N   0  0  0  0  0  0  0  0  0  0  0  0
    2.8208   -0.3103   -0.7514 C   0  0  0  0  0  0  0  0  0  0  0  0
    4.2466   -0.8218   -0.9710 C   0  0  0  0  0  0  0  0  0  0  0  0
    2.5983    0.9581   -1.5752 C   0  0  0  0  0  0  0  0  0  0  0  0
    0.2916   -0.0260    0.4322 N   0  0  0  0  0  0  0  0  0  0  0  0
   -3.0335    1.3972    2.3486 H   0  0  0  0  0  0  0  0  0  0  0  0
   -3.7152    2.0198    0.8403 H   0  0  0  0  0  0  0  0  0  0  0  0
   -4.7329    1.0922    1.9555 H   0  0  0  0  0  0  0  0  0  0  0  0
   -3.4166   -0.9680    1.5187 H   0  0  0  0  0  0  0  0  0  0  0  0
   -4.0995   -0.3285    0.0460 H   0  0  0  0  0  0  0  0  0  0  0  0
   -2.8303    1.0914   -1.3776 H   0  0  0  0  0  0  0  0  0  0  0  0
   -1.1217    1.3464   -1.1252 H   0  0  0  0  0  0  0  0  0  0  0  0
   -1.5669   -0.0271   -3.1554 H   0  0  0  0  0  0  0  0  0  0  0  0
   -0.6793   -1.0055   -1.9762 H   0  0  0  0  0  0  0  0  0  0  0  0
   -2.4209   -1.2377   -2.1807 H   0  0  0  0  0  0  0  0  0  0  0  0
    3.2793   -0.4934    1.3001 H   0  0  0  0  0  0  0  0  0  0  0  0
    2.1346   -1.0973   -1.0909 H   0  0  0  0  0  0  0  0  0  0  0  0
    4.4211   -1.7407   -0.4002 H   0  0  0  0  0  0  0  0  0  0  0  0
    4.9905   -0.0852   -0.6469 H   0  0  0  0  0  0  0  0  0  0  0  0
    4.4235   -1.0439   -2.0286 H   0  0  0  0  0  0  0  0  0  0  0  0
    2.7679    0.7641   -2.6397 H   0  0  0  0  0  0  0  0  0  0  0  0
    3.2787    1.7587   -1.2633 H   0  0  0  0  0  0  0  0  0  0  0  0
    1.5772    1.3363   -1.4662 H   0  0  0  0  0  0  0  0  0  0  0  0
  1  2  1  0
  2  3  1  0
  3  4  1  0
  4  5  1  0
  3  6  1  0
  6  7  2  0
  7  8  1  0
  8  9  1  0
  8 10  2  0
 10 11  1  0
 11 12  1  0
 12 13  1  0
 13 14  1  0
 13 15  1  0
 11 16  2  0
 16  6  1  0
  1 17  1  0
  1 18  1  0
  1 19  1  0
  2 20  1  0
  2 21  1  0
  4 22  1  0
  4 23  1  0
  5 24  1  0
  5 25  1  0
  5 26  1  0
 12 27  1  0
 13 28  1  0
 14 29  1  0
 14 30  1  0
 14 31  1  0
 15 32  1  0
 15 33  1  0
 15 34  1  0
M  END
>  <Energy>  (9) 
-226.18508150231267

>  <Real charge>  (9) 
0

>  <Mult>  (9) 
1

$$$$
mol_246 190
     RDKit          3D

 34 34  0  0  0  0  0  0  0  0999 V2000
   -3.7529   -1.3126   -1.1374 C   0  0  0  0  0  0  0  0  0  0  0  0
   -3.2779   -0.9460    0.2609 C   0  0  0  0  0  0  0  0  0  0  0  0
   -1.9883   -0.2711    0.2032 N   0  0  0  0  0  0  0  0  0  0  0  0
   -1.9316    1.1756    0.3609 C   0  0  0  0  0  0  0  0  0  0  0  0
   -1.8458    1.5697    1.8285 C   0  0  0  0  0  0  0  0  0  0  0  0
   -0.8230   -1.0111    0.2294 C   0  0  0  0  0  0  0  0  0  0  0  0
   -0.9023   -2.3307    0.1857 N   0  0  0  0  0  0  0  0  0  0  0  0
    0.2685   -2.9463    0.2085 C   0  0  0  0  0  0  0  0  0  0  0  0
    0.2119   -4.6547    0.1459 Cl  0  0  0  0  0  0  0  0  0  0  0  0
    1.4765   -2.4112    0.2621 N   0  0  0  0  0  0  0  0  0  0  0  0
    1.4548   -1.0952    0.3060 C   0  0  0  0  0  0  0  0  0  0  0  0
    2.6987   -0.4819    0.3809 N   0  0  0  0  0  0  0  0  0  0  0  0
    2.8250    0.8259   -0.2526 C   0  0  0  0  0  0  0  0  0  0  0  0
    2.5372    1.9294    0.7655 C   0  0  0  0  0  0  0  0  0  0  0  0
    4.2518    0.9777   -0.7853 C   0  0  0  0  0  0  0  0  0  0  0  0
    0.3429   -0.3689    0.2833 N   0  0  0  0  0  0  0  0  0  0  0  0
   -4.7383   -1.7864   -1.0908 H   0  0  0  0  0  0  0  0  0  0  0  0
   -3.0642   -2.0095   -1.6256 H   0  0  0  0  0  0  0  0  0  0  0  0
   -3.8318   -0.4223   -1.7703 H   0  0  0  0  0  0  0  0  0  0  0  0
   -4.0254   -0.2858    0.7181 H   0  0  0  0  0  0  0  0  0  0  0  0
   -3.2455   -1.8371    0.8997 H   0  0  0  0  0  0  0  0  0  0  0  0
   -1.0935    1.6103   -0.1976 H   0  0  0  0  0  0  0  0  0  0  0  0
   -2.8338    1.6249   -0.0729 H   0  0  0  0  0  0  0  0  0  0  0  0
   -1.8351    2.6597    1.9268 H   0  0  0  0  0  0  0  0  0  0  0  0
   -2.7031    1.1860    2.3914 H   0  0  0  0  0  0  0  0  0  0  0  0
   -0.9371    1.1790    2.2973 H   0  0  0  0  0  0  0  0  0  0  0  0
    3.3770   -1.1817    0.0970 H   0  0  0  0  0  0  0  0  0  0  0  0
    2.1437    0.9242   -1.1079 H   0  0  0  0  0  0  0  0  0  0  0  0
    2.6662    2.9183    0.3129 H   0  0  0  0  0  0  0  0  0  0  0  0
    1.5128    1.8704    1.1459 H   0  0  0  0  0  0  0  0  0  0  0  0
    3.2106    1.8600    1.6275 H   0  0  0  0  0  0  0  0  0  0  0  0
    4.4725    0.2037   -1.5287 H   0  0  0  0  0  0  0  0  0  0  0  0
    4.3884    1.9531   -1.2640 H   0  0  0  0  0  0  0  0  0  0  0  0
    4.9912    0.8845    0.0183 H   0  0  0  0  0  0  0  0  0  0  0  0
  1  2  1  0
  2  3  1  0
  3  4  1  0
  4  5  1  0
  3  6  1  0
  6  7  2  0
  7  8  1  0
  8  9  1  0
  8 10  2  0
 10 11  1  0
 11 12  1  0
 12 13  1  0
 13 14  1  0
 13 15  1  0
 11 16  2  0
 16  6  1  0
  1 17  1  0
  1 18  1  0
  1 19  1  0
  2 20  1  0
  2 21  1  0
  4 22  1  0
  4 23  1  0
  5 24  1  0
  5 25  1  0
  5 26  1  0
 12 27  1  0
 13 28  1  0
 14 29  1  0
 14 30  1  0
 14 31  1  0
 15 32  1  0
 15 33  1  0
 15 34  1  0
M  END
>  <Energy>  (10) 
-226.1363431596093

>  <Real charge>  (10) 
0

>  <Mult>  (10) 
1

$$$$
