mol_1065 147
     RDKit          3D

 34 33  0  0  0  0  0  0  0  0999 V2000
   -2.8063    0.9003    1.8337 C   0  0  0  0  0  0  0  0  0  0  0  0
   -2.0621   -0.2829    1.4866 N   0  0  0  0  0  0  0  0  0  0  0  0
   -2.5644   -1.1876    0.5731 C   0  0  0  0  0  0  0  0  0  0  0  0
   -3.6974   -1.0966    0.1038 O   0  0  0  0  0  0  0  0  0  0  0  0
   -1.6137   -2.3382    0.2220 C   0  0  0  0  0  0  0  0  0  0  0  0
   -2.2426   -3.3273   -0.7530 C   0  0  0  0  0  0  0  0  0  0  0  0
   -0.0111   -1.7180   -0.4332 S   0  0  0  0  0  0  0  0  0  0  0  0
   -0.5817   -0.7275   -1.8575 C   0  0  0  0  0  0  0  0  0  0  0  0
    0.4603    0.3087   -2.2838 C   0  0  0  0  0  0  0  0  0  0  0  0
    0.4387    1.8334   -1.2947 S   0  0  0  0  0  0  0  0  0  0  0  0
    1.4762    1.4156    0.4635 P   0  0  0  0  0  5  0  0  0  0  0  0
    0.5657    0.8102    1.4973 O   0  0  0  0  0  0  0  0  0  0  0  0
    2.7590    0.4838    0.1438 O   0  0  0  0  0  0  0  0  0  0  0  0
    3.3926   -0.1252    1.2515 C   0  0  0  0  0  0  0  0  0  0  0  0
    2.1821    2.7560    1.0341 O   0  0  0  0  0  0  0  0  0  0  0  0
    3.0374    3.4908    0.1836 C   0  0  0  0  0  0  0  0  0  0  0  0
   -3.8503    0.6446    2.0337 H   0  0  0  0  0  0  0  0  0  0  0  0
   -2.3546    1.3477    2.7219 H   0  0  0  0  0  0  0  0  0  0  0  0
   -2.7575    1.6036    0.9980 H   0  0  0  0  0  0  0  0  0  0  0  0
   -1.0437   -0.2139    1.5690 H   0  0  0  0  0  0  0  0  0  0  0  0
   -1.3926   -2.8686    1.1557 H   0  0  0  0  0  0  0  0  0  0  0  0
   -2.5364   -2.8508   -1.6945 H   0  0  0  0  0  0  0  0  0  0  0  0
   -3.1517   -3.7602   -0.3197 H   0  0  0  0  0  0  0  0  0  0  0  0
   -1.5622   -4.1554   -0.9792 H   0  0  0  0  0  0  0  0  0  0  0  0
   -0.7352   -1.4285   -2.6848 H   0  0  0  0  0  0  0  0  0  0  0  0
   -1.5403   -0.2414   -1.6551 H   0  0  0  0  0  0  0  0  0  0  0  0
    1.4728   -0.1078   -2.3060 H   0  0  0  0  0  0  0  0  0  0  0  0
    0.2275    0.6188   -3.3087 H   0  0  0  0  0  0  0  0  0  0  0  0
    2.7316   -0.8731    1.6972 H   0  0  0  0  0  0  0  0  0  0  0  0
    3.6629    0.6261    1.9984 H   0  0  0  0  0  0  0  0  0  0  0  0
    4.3025   -0.6212    0.9046 H   0  0  0  0  0  0  0  0  0  0  0  0
    3.7110    2.8298   -0.3677 H   0  0  0  0  0  0  0  0  0  0  0  0
    2.4455    4.0860   -0.5160 H   0  0  0  0  0  0  0  0  0  0  0  0
    3.6380    4.1686    0.7956 H   0  0  0  0  0  0  0  0  0  0  0  0
  1  2  1  0
  2  3  1  0
  3  4  2  0
  3  5  1  0
  5  6  1  0
  5  7  1  0
  7  8  1  0
  8  9  1  0
  9 10  1  0
 10 11  1  0
 11 12  2  0
 11 13  1  0
 13 14  1  0
 11 15  1  0
 15 16  1  0
  1 17  1  0
  1 18  1  0
  1 19  1  0
  2 20  1  0
  5 21  1  0
  6 22  1  0
  6 23  1  0
  6 24  1  0
  8 25  1  0
  8 26  1  0
  9 27  1  0
  9 28  1  0
 14 29  1  0
 14 30  1  0
 14 31  1  0
 16 32  1  0
 16 33  1  0
 16 34  1  0
M  END
>  <Energy>  (1) 
-68.60882457265431

>  <Real charge>  (1) 
0

>  <Mult>  (1) 
1

$$$$
