mol_336 17
     RDKit          3D

 23 22  0  0  0  0  0  0  0  0999 V2000
   -1.5621    1.3276    0.6052 C   0  0  0  0  0  0  0  0  0  0  0  0
   -1.2237   -0.1552    0.4492 C   0  0  0  0  0  0  0  0  0  0  0  0
   -2.4750   -0.9272    0.0195 C   0  0  0  0  0  0  0  0  0  0  0  0
   -0.0902   -0.3979   -0.5677 C   0  0  0  0  0  0  0  0  0  0  0  0
    1.2543    0.2902   -0.2566 C   0  0  0  0  0  0  0  0  0  0  0  0
    1.8318   -0.1373    1.0930 C   0  0  0  0  0  0  0  0  0  0  0  0
    2.2607   -0.0189   -1.3693 C   0  0  0  0  0  0  0  0  0  0  0  0
   -2.4187    1.4620    1.2745 H   0  0  0  0  0  0  0  0  0  0  0  0
   -0.7251    1.8843    1.0369 H   0  0  0  0  0  0  0  0  0  0  0  0
   -1.8134    1.7811   -0.3596 H   0  0  0  0  0  0  0  0  0  0  0  0
   -0.9214   -0.5458    1.4278 H   0  0  0  0  0  0  0  0  0  0  0  0
   -3.2798   -0.8026    0.7519 H   0  0  0  0  0  0  0  0  0  0  0  0
   -2.2626   -1.9985   -0.0619 H   0  0  0  0  0  0  0  0  0  0  0  0
   -2.8439   -0.5792   -0.9514 H   0  0  0  0  0  0  0  0  0  0  0  0
   -0.4296   -0.0678   -1.5590 H   0  0  0  0  0  0  0  0  0  0  0  0
    0.0788   -1.4803   -0.6496 H   0  0  0  0  0  0  0  0  0  0  0  0
    1.1097    1.3768   -0.2423 H   0  0  0  0  0  0  0  0  0  0  0  0
    1.9393   -1.2257    1.1520 H   0  0  0  0  0  0  0  0  0  0  0  0
    2.8199    0.3083    1.2512 H   0  0  0  0  0  0  0  0  0  0  0  0
    1.1948    0.1887    1.9206 H   0  0  0  0  0  0  0  0  0  0  0  0
    1.8810    0.3143   -2.3410 H   0  0  0  0  0  0  0  0  0  0  0  0
    3.2103    0.4961   -1.1891 H   0  0  0  0  0  0  0  0  0  0  0  0
    2.4650   -1.0931   -1.4344 H   0  0  0  0  0  0  0  0  0  0  0  0
  1  2  1  0
  2  3  1  0
  2  4  1  0
  4  5  1  0
  5  6  1  0
  5  7  1  0
  1  8  1  0
  1  9  1  0
  1 10  1  0
  2 11  1  0
  3 12  1  0
  3 13  1  0
  3 14  1  0
  4 15  1  0
  4 16  1  0
  5 17  1  0
  6 18  1  0
  6 19  1  0
  6 20  1  0
  7 21  1  0
  7 22  1  0
  7 23  1  0
M  END
>  <Energy>  (1) 
5.438078639291031

>  <Real charge>  (1) 
0

>  <Mult>  (1) 
1

$$$$
