mol_90 104
     RDKit          3D

 31 33  0  0  0  0  0  0  0  0999 V2000
   -0.2453    2.9691   -1.0744 C   0  0  0  0  0  0  0  0  0  0  0  0
    0.4023    2.1752    0.0599 C   0  0  0  0  0  0  0  0  0  0  0  0
    0.1792    0.7227   -0.0940 N   0  0  0  0  0  0  0  0  0  0  0  0
    1.2302   -0.1433    0.2889 C   0  0  0  0  0  0  0  0  0  0  0  0
    2.2002    0.2496    1.2357 C   0  0  0  0  0  0  0  0  0  0  0  0
    3.2921   -0.5628    1.5453 C   0  0  0  0  0  0  0  0  0  0  0  0
    4.4515   -0.0348    2.7019 Cl  0  0  0  0  0  0  0  0  0  0  0  0
    3.4533   -1.7891    0.9195 C   0  0  0  0  0  0  0  0  0  0  0  0
    2.4969   -2.2130    0.0003 C   0  0  0  0  0  0  0  0  0  0  0  0
    1.3726   -1.4195   -0.2904 C   0  0  0  0  0  0  0  0  0  0  0  0
    0.4766   -1.9612   -1.2210 N   0  0  0  0  0  0  0  0  0  0  0  0
   -0.8497   -1.7052   -1.4413 C   0  0  0  0  0  0  0  0  0  0  0  0
   -1.4180   -2.3302   -2.3406 O   0  0  0  0  0  0  0  0  0  0  0  0
   -1.6520   -0.8280   -0.5700 C   0  0  0  0  0  0  0  0  0  0  0  0
   -3.0116   -1.1565   -0.4212 C   0  0  0  0  0  0  0  0  0  0  0  0
   -3.8490   -0.3481    0.3336 C   0  0  0  0  0  0  0  0  0  0  0  0
   -3.2990    0.7773    0.9054 C   0  0  0  0  0  0  0  0  0  0  0  0
   -2.0013    1.1261    0.7681 N   0  0  0  0  0  0  0  0  0  0  0  0
   -1.1693    0.3284    0.0362 C   0  0  0  0  0  0  0  0  0  0  0  0
    0.0279    4.0263   -0.9943 H   0  0  0  0  0  0  0  0  0  0  0  0
   -1.3371    2.9088   -1.0571 H   0  0  0  0  0  0  0  0  0  0  0  0
    0.0953    2.6025   -2.0488 H   0  0  0  0  0  0  0  0  0  0  0  0
    1.4730    2.4066   -0.0121 H   0  0  0  0  0  0  0  0  0  0  0  0
    0.0666    2.5400    1.0389 H   0  0  0  0  0  0  0  0  0  0  0  0
    2.1068    1.1976    1.7587 H   0  0  0  0  0  0  0  0  0  0  0  0
    4.3070   -2.4214    1.1471 H   0  0  0  0  0  0  0  0  0  0  0  0
    2.6252   -3.1851   -0.4709 H   0  0  0  0  0  0  0  0  0  0  0  0
    0.7903   -2.7557   -1.7652 H   0  0  0  0  0  0  0  0  0  0  0  0
   -3.4163   -2.0443   -0.9036 H   0  0  0  0  0  0  0  0  0  0  0  0
   -4.8984   -0.5870    0.4611 H   0  0  0  0  0  0  0  0  0  0  0  0
   -3.9001    1.4552    1.5045 H   0  0  0  0  0  0  0  0  0  0  0  0
  1  2  1  0
  2  3  1  0
  3  4  1  0
  4  5  2  0
  5  6  1  0
  6  7  1  0
  6  8  2  0
  8  9  1  0
  9 10  2  0
 10 11  1  0
 11 12  1  0
 12 13  2  0
 12 14  1  0
 14 15  2  0
 15 16  1  0
 16 17  2  0
 17 18  1  0
 18 19  2  0
 10  4  1  0
 19  3  1  0
 19 14  1  0
  1 20  1  0
  1 21  1  0
  1 22  1  0
  2 23  1  0
  2 24  1  0
  5 25  1  0
  8 26  1  0
  9 27  1  0
 11 28  1  0
 15 29  1  0
 16 30  1  0
 17 31  1  0
M  END
>  <Energy>  (1) 
42.649228285332846

>  <Real charge>  (1) 
0

>  <Mult>  (1) 
1

$$$$
mol_90 36
     RDKit          3D

 31 33  0  0  0  0  0  0  0  0999 V2000
   -0.9117    2.7338   -1.2488 C   0  0  0  0  0  0  0  0  0  0  0  0
   -0.0169    2.2188   -0.1227 C   0  0  0  0  0  0  0  0  0  0  0  0
    0.0997    0.7456   -0.1509 N   0  0  0  0  0  0  0  0  0  0  0  0
   -1.0525   -0.0454    0.0555 C   0  0  0  0  0  0  0  0  0  0  0  0
   -2.1725    0.4476    0.7576 C   0  0  0  0  0  0  0  0  0  0  0  0
   -3.3471   -0.2966    0.8821 C   0  0  0  0  0  0  0  0  0  0  0  0
   -4.6875    0.3569    1.7409 Cl  0  0  0  0  0  0  0  0  0  0  0  0
   -3.4450   -1.5540    0.3082 C   0  0  0  0  0  0  0  0  0  0  0  0
   -2.3475   -2.0758   -0.3711 C   0  0  0  0  0  0  0  0  0  0  0  0
   -1.1466   -1.3498   -0.4703 C   0  0  0  0  0  0  0  0  0  0  0  0
   -0.1158   -1.9882   -1.1720 N   0  0  0  0  0  0  0  0  0  0  0  0
    1.2396   -1.8054   -1.1357 C   0  0  0  0  0  0  0  0  0  0  0  0
    1.9390   -2.5084   -1.8698 O   0  0  0  0  0  0  0  0  0  0  0  0
    1.9003   -0.9141   -0.1664 C   0  0  0  0  0  0  0  0  0  0  0  0
    3.1814   -1.2953    0.2723 C   0  0  0  0  0  0  0  0  0  0  0  0
    3.8954   -0.4819    1.1401 C   0  0  0  0  0  0  0  0  0  0  0  0
    3.3076    0.7005    1.5307 C   0  0  0  0  0  0  0  0  0  0  0  0
    2.0862    1.1000    1.1148 N   0  0  0  0  0  0  0  0  0  0  0  0
    1.3732    0.2982    0.2692 C   0  0  0  0  0  0  0  0  0  0  0  0
   -0.5622    2.3685   -2.2205 H   0  0  0  0  0  0  0  0  0  0  0  0
   -1.9539    2.4258   -1.1310 H   0  0  0  0  0  0  0  0  0  0  0  0
   -0.8925    3.8283   -1.2705 H   0  0  0  0  0  0  0  0  0  0  0  0
    0.9597    2.6887   -0.3058 H   0  0  0  0  0  0  0  0  0  0  0  0
   -0.3555    2.5844    0.8539 H   0  0  0  0  0  0  0  0  0  0  0  0
   -2.1440    1.4266    1.2262 H   0  0  0  0  0  0  0  0  0  0  0  0
   -4.3599   -2.1339    0.3912 H   0  0  0  0  0  0  0  0  0  0  0  0
   -2.4307   -3.0702   -0.8044 H   0  0  0  0  0  0  0  0  0  0  0  0
   -0.3598   -2.8001   -1.7262 H   0  0  0  0  0  0  0  0  0  0  0  0
    3.6226   -2.2287   -0.0720 H   0  0  0  0  0  0  0  0  0  0  0  0
    4.8824   -0.7609    1.4905 H   0  0  0  0  0  0  0  0  0  0  0  0
    3.8143    1.3849    2.2051 H   0  0  0  0  0  0  0  0  0  0  0  0
  1  2  1  0
  2  3  1  0
  3  4  1  0
  4  5  2  0
  5  6  1  0
  6  7  1  0
  6  8  2  0
  8  9  1  0
  9 10  2  0
 10 11  1  0
 11 12  1  0
 12 13  2  0
 12 14  1  0
 14 15  2  0
 15 16  1  0
 16 17  2  0
 17 18  1  0
 18 19  2  0
 10  4  1  0
 19  3  1  0
 19 14  1  0
  1 20  1  0
  1 21  1  0
  1 22  1  0
  2 23  1  0
  2 24  1  0
  5 25  1  0
  8 26  1  0
  9 27  1  0
 11 28  1  0
 15 29  1  0
 16 30  1  0
 17 31  1  0
M  END
>  <Energy>  (2) 
42.91156040890688

>  <Real charge>  (2) 
0

>  <Mult>  (2) 
1

$$$$
