mol_607 17
     RDKit          3D

 21 22  0  0  0  0  0  0  0  0999 V2000
   -2.1153   -1.6277    0.2562 C   0  0  0  0  0  0  0  0  0  0  0  0
   -1.3573   -0.3319    0.1309 C   0  0  0  0  0  0  0  0  0  0  0  0
   -2.0829    0.8706    0.1360 C   0  0  0  0  0  0  0  0  0  0  0  0
   -1.4311    2.0942    0.0232 C   0  0  0  0  0  0  0  0  0  0  0  0
   -0.0446    2.1335   -0.0965 C   0  0  0  0  0  0  0  0  0  0  0  0
    0.7104    0.9517   -0.1051 C   0  0  0  0  0  0  0  0  0  0  0  0
    2.1090    1.0076   -0.2265 C   0  0  0  0  0  0  0  0  0  0  0  0
    2.8758   -0.1564   -0.2370 C   0  0  0  0  0  0  0  0  0  0  0  0
    2.2531   -1.3924   -0.1260 C   0  0  0  0  0  0  0  0  0  0  0  0
    0.8632   -1.4644   -0.0045 C   0  0  0  0  0  0  0  0  0  0  0  0
    0.0588   -0.3027    0.0092 C   0  0  0  0  0  0  0  0  0  0  0  0
   -1.9505   -2.2519   -0.6279 H   0  0  0  0  0  0  0  0  0  0  0  0
   -3.1941   -1.4576    0.3398 H   0  0  0  0  0  0  0  0  0  0  0  0
   -1.7991   -2.1681    1.1542 H   0  0  0  0  0  0  0  0  0  0  0  0
   -3.1668    0.8593    0.2286 H   0  0  0  0  0  0  0  0  0  0  0  0
   -2.0029    3.0183    0.0283 H   0  0  0  0  0  0  0  0  0  0  0  0
    0.4457    3.1005   -0.1836 H   0  0  0  0  0  0  0  0  0  0  0  0
    2.6146    1.9668   -0.3145 H   0  0  0  0  0  0  0  0  0  0  0  0
    3.9565   -0.0954   -0.3316 H   0  0  0  0  0  0  0  0  0  0  0  0
    2.8450   -2.3039   -0.1334 H   0  0  0  0  0  0  0  0  0  0  0  0
    0.4124   -2.4501    0.0801 H   0  0  0  0  0  0  0  0  0  0  0  0
  1  2  1  0
  2  3  2  0
  3  4  1  0
  4  5  2  0
  5  6  1  0
  6  7  2  0
  7  8  1  0
  8  9  2  0
  9 10  1  0
 10 11  2  0
 11  2  1  0
 11  6  1  0
  1 12  1  0
  1 13  1  0
  1 14  1  0
  3 15  1  0
  4 16  1  0
  5 17  1  0
  7 18  1  0
  8 19  1  0
  9 20  1  0
 10 21  1  0
M  END
>  <Energy>  (1) 
35.8714238206969

>  <Real charge>  (1) 
0

>  <Mult>  (1) 
1

$$$$
