mol_279 21
     RDKit          3D

  8  7  0  0  0  0  0  0  0  0999 V2000
    1.7876    0.9886    0.7808 Cl  0  0  0  0  0  0  0  0  0  0  0  0
    0.7633   -0.1580   -0.1286 C   0  0  0  0  0  0  0  0  0  0  0  0
   -0.7197    0.0370    0.1681 C   0  0  0  0  0  0  0  0  0  0  0  0
   -1.6643   -1.2801   -0.5865 Cl  0  0  0  0  0  0  0  0  0  0  0  0
   -1.3237    1.5988   -0.4506 Cl  0  0  0  0  0  0  0  0  0  0  0  0
    0.9866   -0.0288   -1.1929 H   0  0  0  0  0  0  0  0  0  0  0  0
    1.0894   -1.1606    0.1665 H   0  0  0  0  0  0  0  0  0  0  0  0
   -0.9192    0.0030    1.2432 H   0  0  0  0  0  0  0  0  0  0  0  0
  1  2  1  0
  2  3  1  0
  3  4  1  0
  3  5  1  0
  2  6  1  0
  2  7  1  0
  3  8  1  0
M  END
>  <Energy>  (1) 
13.563966541125886

>  <Real charge>  (1) 
0

>  <Mult>  (1) 
1

$$$$
