mol_133 105
     RDKit          3D

 30 30  0  0  0  0  0  0  0  0999 V2000
   -1.5607    2.3111    0.5671 C   0  0  0  0  0  0  0  0  0  0  0  0
   -2.2886    0.9941    0.3670 C   0  0  0  0  0  0  0  0  0  0  0  0
   -2.7022    0.7113   -1.3859 S   0  0  0  0  0  0  0  0  0  0  0  0
   -1.0724    0.2109   -2.0382 C   0  0  0  0  0  0  0  0  0  0  0  0
   -0.5675   -1.1029   -1.4976 C   0  0  0  0  0  0  0  0  0  0  0  0
   -1.3067   -2.2813   -1.7004 C   0  0  0  0  0  0  0  0  0  0  0  0
   -0.8436   -3.5123   -1.2270 C   0  0  0  0  0  0  0  0  0  0  0  0
    0.3740   -3.5917   -0.5543 C   0  0  0  0  0  0  0  0  0  0  0  0
    1.1313   -2.4405   -0.3540 C   0  0  0  0  0  0  0  0  0  0  0  0
    0.6518   -1.2092   -0.8123 C   0  0  0  0  0  0  0  0  0  0  0  0
    1.4657   -0.0767   -0.6635 O   0  0  0  0  0  0  0  0  0  0  0  0
    1.5591    0.4069    0.6321 C   0  0  0  0  0  0  0  0  0  0  0  0
    0.9635   -0.0221    1.6102 O   0  0  0  0  0  0  0  0  0  0  0  0
    2.4102    1.4772    0.6495 N   0  0  0  0  0  0  0  0  0  0  0  0
    2.5970    2.2815    1.8260 C   0  0  0  0  0  0  0  0  0  0  0  0
   -1.3472    2.4588    1.6310 H   0  0  0  0  0  0  0  0  0  0  0  0
   -0.6070    2.3423    0.0334 H   0  0  0  0  0  0  0  0  0  0  0  0
   -2.1700    3.1577    0.2329 H   0  0  0  0  0  0  0  0  0  0  0  0
   -1.7108    0.1563    0.7654 H   0  0  0  0  0  0  0  0  0  0  0  0
   -3.2317    1.0217    0.9226 H   0  0  0  0  0  0  0  0  0  0  0  0
   -0.3641    1.0276   -1.8743 H   0  0  0  0  0  0  0  0  0  0  0  0
   -1.1688    0.1154   -3.1262 H   0  0  0  0  0  0  0  0  0  0  0  0
   -2.2573   -2.2463   -2.2304 H   0  0  0  0  0  0  0  0  0  0  0  0
   -1.4355   -4.4103   -1.3866 H   0  0  0  0  0  0  0  0  0  0  0  0
    0.7335   -4.5501   -0.1895 H   0  0  0  0  0  0  0  0  0  0  0  0
    2.0857   -2.5031    0.1605 H   0  0  0  0  0  0  0  0  0  0  0  0
    2.7379    1.8051   -0.2482 H   0  0  0  0  0  0  0  0  0  0  0  0
    3.5452    2.8162    1.7353 H   0  0  0  0  0  0  0  0  0  0  0  0
    1.7739    2.9979    1.8920 H   0  0  0  0  0  0  0  0  0  0  0  0
    2.6053    1.6545    2.7214 H   0  0  0  0  0  0  0  0  0  0  0  0
  1  2  1  0
  2  3  1  0
  3  4  1  0
  4  5  1  0
  5  6  2  0
  6  7  1  0
  7  8  2  0
  8  9  1  0
  9 10  2  0
 10 11  1  0
 11 12  1  0
 12 13  2  0
 12 14  1  0
 14 15  1  0
 10  5  1  0
  1 16  1  0
  1 17  1  0
  1 18  1  0
  2 19  1  0
  2 20  1  0
  4 21  1  0
  4 22  1  0
  6 23  1  0
  7 24  1  0
  8 25  1  0
  9 26  1  0
 14 27  1  0
 15 28  1  0
 15 29  1  0
 15 30  1  0
M  END
>  <Energy>  (1) 
-13.487551140341093

>  <Real charge>  (1) 
0

>  <Mult>  (1) 
1

$$$$
mol_133 233
     RDKit          3D

 30 30  0  0  0  0  0  0  0  0999 V2000
   -1.7316   -2.2889    0.5873 C   0  0  0  0  0  0  0  0  0  0  0  0
   -2.3126   -0.9000    0.7813 C   0  0  0  0  0  0  0  0  0  0  0  0
   -2.9893   -0.2278   -0.7724 S   0  0  0  0  0  0  0  0  0  0  0  0
   -1.4495    0.2508   -1.6281 C   0  0  0  0  0  0  0  0  0  0  0  0
   -0.7017    1.3811   -0.9672 C   0  0  0  0  0  0  0  0  0  0  0  0
   -1.3167    2.6344   -0.8019 C   0  0  0  0  0  0  0  0  0  0  0  0
   -0.6315    3.7007   -0.2126 C   0  0  0  0  0  0  0  0  0  0  0  0
    0.6865    3.5395    0.2098 C   0  0  0  0  0  0  0  0  0  0  0  0
    1.3222    2.3119    0.0432 C   0  0  0  0  0  0  0  0  0  0  0  0
    0.6235    1.2437   -0.5284 C   0  0  0  0  0  0  0  0  0  0  0  0
    1.3082    0.0405   -0.7527 O   0  0  0  0  0  0  0  0  0  0  0  0
    1.5577   -0.7078    0.3868 C   0  0  0  0  0  0  0  0  0  0  0  0
    1.2069   -0.4331    1.5257 O   0  0  0  0  0  0  0  0  0  0  0  0
    2.2644   -1.8264    0.0410 N   0  0  0  0  0  0  0  0  0  0  0  0
    2.7685   -2.7428    1.0269 C   0  0  0  0  0  0  0  0  0  0  0  0
   -2.4910   -2.9917    0.2281 H   0  0  0  0  0  0  0  0  0  0  0  0
   -1.3556   -2.6702    1.5425 H   0  0  0  0  0  0  0  0  0  0  0  0
   -0.8973   -2.2936   -0.1193 H   0  0  0  0  0  0  0  0  0  0  0  0
   -3.1393   -0.9579    1.4970 H   0  0  0  0  0  0  0  0  0  0  0  0
   -1.5736   -0.2159    1.2059 H   0  0  0  0  0  0  0  0  0  0  0  0
   -0.8285   -0.6400   -1.7562 H   0  0  0  0  0  0  0  0  0  0  0  0
   -1.7219    0.5710   -2.6408 H   0  0  0  0  0  0  0  0  0  0  0  0
   -2.3432    2.7874   -1.1313 H   0  0  0  0  0  0  0  0  0  0  0  0
   -1.1292    4.6590   -0.0858 H   0  0  0  0  0  0  0  0  0  0  0  0
    1.2180    4.3707    0.6652 H   0  0  0  0  0  0  0  0  0  0  0  0
    2.3529    2.1886    0.3623 H   0  0  0  0  0  0  0  0  0  0  0  0
    2.5984   -1.8694   -0.9116 H   0  0  0  0  0  0  0  0  0  0  0  0
    2.9648   -3.7019    0.5423 H   0  0  0  0  0  0  0  0  0  0  0  0
    2.0426   -2.8735    1.8339 H   0  0  0  0  0  0  0  0  0  0  0  0
    3.6980   -2.3384    1.4360 H   0  0  0  0  0  0  0  0  0  0  0  0
  1  2  1  0
  2  3  1  0
  3  4  1  0
  4  5  1  0
  5  6  2  0
  6  7  1  0
  7  8  2  0
  8  9  1  0
  9 10  2  0
 10 11  1  0
 11 12  1  0
 12 13  2  0
 12 14  1  0
 14 15  1  0
 10  5  1  0
  1 16  1  0
  1 17  1  0
  1 18  1  0
  2 19  1  0
  2 20  1  0
  4 21  1  0
  4 22  1  0
  6 23  1  0
  7 24  1  0
  8 25  1  0
  9 26  1  0
 14 27  1  0
 15 28  1  0
 15 29  1  0
 15 30  1  0
M  END
>  <Energy>  (2) 
-13.483135413018125

>  <Real charge>  (2) 
0

>  <Mult>  (2) 
1

$$$$
mol_133 289
     RDKit          3D

 30 30  0  0  0  0  0  0  0  0999 V2000
    3.0361    1.9876   -0.9267 C   0  0  0  0  0  0  0  0  0  0  0  0
    1.9288    1.2025   -0.2458 C   0  0  0  0  0  0  0  0  0  0  0  0
    2.5100    0.5858    1.3664 S   0  0  0  0  0  0  0  0  0  0  0  0
    0.9592   -0.1457    1.9860 C   0  0  0  0  0  0  0  0  0  0  0  0
    0.4491   -1.3015    1.1641 C   0  0  0  0  0  0  0  0  0  0  0  0
    1.2236   -2.4659    1.0248 C   0  0  0  0  0  0  0  0  0  0  0  0
    0.7582   -3.5543    0.2812 C   0  0  0  0  0  0  0  0  0  0  0  0
   -0.4951   -3.5046   -0.3261 C   0  0  0  0  0  0  0  0  0  0  0  0
   -1.2863   -2.3667   -0.1911 C   0  0  0  0  0  0  0  0  0  0  0  0
   -0.8056   -1.2746    0.5377 C   0  0  0  0  0  0  0  0  0  0  0  0
   -1.6514   -0.1712    0.7174 O   0  0  0  0  0  0  0  0  0  0  0  0
   -1.7495    0.6631   -0.3846 C   0  0  0  0  0  0  0  0  0  0  0  0
   -1.1577    0.5334   -1.4470 O   0  0  0  0  0  0  0  0  0  0  0  0
   -2.6222    1.6770   -0.1012 N   0  0  0  0  0  0  0  0  0  0  0  0
   -3.0244    2.6346   -1.0949 C   0  0  0  0  0  0  0  0  0  0  0  0
    3.3412    2.8539   -0.3298 H   0  0  0  0  0  0  0  0  0  0  0  0
    2.6860    2.3604   -1.8951 H   0  0  0  0  0  0  0  0  0  0  0  0
    3.9170    1.3633   -1.1115 H   0  0  0  0  0  0  0  0  0  0  0  0
    1.6390    0.3603   -0.8803 H   0  0  0  0  0  0  0  0  0  0  0  0
    1.0621    1.8520   -0.0925 H   0  0  0  0  0  0  0  0  0  0  0  0
    0.2201    0.6565    2.0742 H   0  0  0  0  0  0  0  0  0  0  0  0
    1.1409   -0.5022    3.0066 H   0  0  0  0  0  0  0  0  0  0  0  0
    2.2036   -2.5300    1.4949 H   0  0  0  0  0  0  0  0  0  0  0  0
    1.3769   -4.4424    0.1781 H   0  0  0  0  0  0  0  0  0  0  0  0
   -0.8553   -4.3531   -0.9015 H   0  0  0  0  0  0  0  0  0  0  0  0
   -2.2673   -2.3303   -0.6552 H   0  0  0  0  0  0  0  0  0  0  0  0
   -3.1388    1.5946    0.7633 H   0  0  0  0  0  0  0  0  0  0  0  0
   -2.1774    2.9044   -1.7313 H   0  0  0  0  0  0  0  0  0  0  0  0
   -3.8127    2.1904   -1.7082 H   0  0  0  0  0  0  0  0  0  0  0  0
   -3.4080    3.5226   -0.5873 H   0  0  0  0  0  0  0  0  0  0  0  0
  1  2  1  0
  2  3  1  0
  3  4  1  0
  4  5  1  0
  5  6  2  0
  6  7  1  0
  7  8  2  0
  8  9  1  0
  9 10  2  0
 10 11  1  0
 11 12  1  0
 12 13  2  0
 12 14  1  0
 14 15  1  0
 10  5  1  0
  1 16  1  0
  1 17  1  0
  1 18  1  0
  2 19  1  0
  2 20  1  0
  4 21  1  0
  4 22  1  0
  6 23  1  0
  7 24  1  0
  8 25  1  0
  9 26  1  0
 14 27  1  0
 15 28  1  0
 15 29  1  0
 15 30  1  0
M  END
>  <Energy>  (3) 
-13.315261512692238

>  <Real charge>  (3) 
0

>  <Mult>  (3) 
1

$$$$
mol_133 282
     RDKit          3D

 30 30  0  0  0  0  0  0  0  0999 V2000
    2.7969    1.5630   -0.2456 C   0  0  0  0  0  0  0  0  0  0  0  0
    3.0044    0.0829    0.0210 C   0  0  0  0  0  0  0  0  0  0  0  0
    2.6308   -0.3670    1.7464 S   0  0  0  0  0  0  0  0  0  0  0  0
    0.8100   -0.2488    1.7437 C   0  0  0  0  0  0  0  0  0  0  0  0
    0.1378   -1.2917    0.8895 C   0  0  0  0  0  0  0  0  0  0  0  0
    0.1691   -2.6416    1.2784 C   0  0  0  0  0  0  0  0  0  0  0  0
   -0.4445   -3.6279    0.5009 C   0  0  0  0  0  0  0  0  0  0  0  0
   -1.0991   -3.2836   -0.6806 C   0  0  0  0  0  0  0  0  0  0  0  0
   -1.1447   -1.9520   -1.0851 C   0  0  0  0  0  0  0  0  0  0  0  0
   -0.5435   -0.9699   -0.2929 C   0  0  0  0  0  0  0  0  0  0  0  0
   -0.5660    0.3479   -0.7643 O   0  0  0  0  0  0  0  0  0  0  0  0
   -1.6892    1.0588   -0.3726 C   0  0  0  0  0  0  0  0  0  0  0  0
   -2.5950    0.6480    0.3388 O   0  0  0  0  0  0  0  0  0  0  0  0
   -1.6319    2.3152   -0.9103 N   0  0  0  0  0  0  0  0  0  0  0  0
   -2.7197    3.2463   -0.7831 C   0  0  0  0  0  0  0  0  0  0  0  0
    3.0938    1.7985   -1.2731 H   0  0  0  0  0  0  0  0  0  0  0  0
    3.4070    2.1795    0.4231 H   0  0  0  0  0  0  0  0  0  0  0  0
    1.7508    1.8609   -0.1334 H   0  0  0  0  0  0  0  0  0  0  0  0
    2.4173   -0.5276   -0.6705 H   0  0  0  0  0  0  0  0  0  0  0  0
    4.0567   -0.1641   -0.1548 H   0  0  0  0  0  0  0  0  0  0  0  0
    0.5137    0.7677    1.4720 H   0  0  0  0  0  0  0  0  0  0  0  0
    0.4714   -0.3822    2.7782 H   0  0  0  0  0  0  0  0  0  0  0  0
    0.6800   -2.9335    2.1945 H   0  0  0  0  0  0  0  0  0  0  0  0
   -0.4087   -4.6669    0.8190 H   0  0  0  0  0  0  0  0  0  0  0  0
   -1.5731   -4.0530   -1.2841 H   0  0  0  0  0  0  0  0  0  0  0  0
   -1.6508   -1.6813   -2.0068 H   0  0  0  0  0  0  0  0  0  0  0  0
   -0.8967    2.4819   -1.5827 H   0  0  0  0  0  0  0  0  0  0  0  0
   -3.1692    3.1767    0.2110 H   0  0  0  0  0  0  0  0  0  0  0  0
   -2.3353    4.2551   -0.9495 H   0  0  0  0  0  0  0  0  0  0  0  0
   -3.4722    3.0085   -1.5395 H   0  0  0  0  0  0  0  0  0  0  0  0
  1  2  1  0
  2  3  1  0
  3  4  1  0
  4  5  1  0
  5  6  2  0
  6  7  1  0
  7  8  2  0
  8  9  1  0
  9 10  2  0
 10 11  1  0
 11 12  1  0
 12 13  2  0
 12 14  1  0
 14 15  1  0
 10  5  1  0
  1 16  1  0
  1 17  1  0
  1 18  1  0
  2 19  1  0
  2 20  1  0
  4 21  1  0
  4 22  1  0
  6 23  1  0
  7 24  1  0
  8 25  1  0
  9 26  1  0
 14 27  1  0
 15 28  1  0
 15 29  1  0
 15 30  1  0
M  END
>  <Energy>  (4) 
-12.873315126243149

>  <Real charge>  (4) 
0

>  <Mult>  (4) 
1

$$$$
mol_133 396
     RDKit          3D

 30 30  0  0  0  0  0  0  0  0999 V2000
   -1.6900    2.6796   -0.2496 C   0  0  0  0  0  0  0  0  0  0  0  0
   -2.5886    1.4840    0.0111 C   0  0  0  0  0  0  0  0  0  0  0  0
   -2.5121    0.9285    1.7445 S   0  0  0  0  0  0  0  0  0  0  0  0
   -0.8592    0.1569    1.7844 C   0  0  0  0  0  0  0  0  0  0  0  0
   -0.7496   -1.0838    0.9375 C   0  0  0  0  0  0  0  0  0  0  0  0
   -1.4366   -2.2507    1.3126 C   0  0  0  0  0  0  0  0  0  0  0  0
   -1.3525   -3.4135    0.5413 C   0  0  0  0  0  0  0  0  0  0  0  0
   -0.5816   -3.4310   -0.6198 C   0  0  0  0  0  0  0  0  0  0  0  0
    0.1098   -2.2870   -1.0103 C   0  0  0  0  0  0  0  0  0  0  0  0
    0.0340   -1.1339   -0.2242 C   0  0  0  0  0  0  0  0  0  0  0  0
    0.7001    0.0090   -0.6820 O   0  0  0  0  0  0  0  0  0  0  0  0
    2.0194    0.0872   -0.2651 C   0  0  0  0  0  0  0  0  0  0  0  0
    2.5940   -0.7012    0.4721 O   0  0  0  0  0  0  0  0  0  0  0  0
    2.5873    1.2150   -0.7907 N   0  0  0  0  0  0  0  0  0  0  0  0
    3.9125    1.6393   -0.4301 C   0  0  0  0  0  0  0  0  0  0  0  0
   -1.8150    3.0171   -1.2840 H   0  0  0  0  0  0  0  0  0  0  0  0
   -1.9434    3.5208    0.4043 H   0  0  0  0  0  0  0  0  0  0  0  0
   -0.6321    2.4399   -0.1117 H   0  0  0  0  0  0  0  0  0  0  0  0
   -3.6263    1.7710   -0.1889 H   0  0  0  0  0  0  0  0  0  0  0  0
   -2.3531    0.6593   -0.6671 H   0  0  0  0  0  0  0  0  0  0  0  0
   -0.1050    0.9054    1.5273 H   0  0  0  0  0  0  0  0  0  0  0  0
   -0.6509   -0.1185    2.8253 H   0  0  0  0  0  0  0  0  0  0  0  0
   -2.0493   -2.2575    2.2127 H   0  0  0  0  0  0  0  0  0  0  0  0
   -1.8921   -4.3060    0.8484 H   0  0  0  0  0  0  0  0  0  0  0  0
   -0.5199   -4.3357   -1.2186 H   0  0  0  0  0  0  0  0  0  0  0  0
    0.7084   -2.2964   -1.9162 H   0  0  0  0  0  0  0  0  0  0  0  0
    1.9683    1.8433   -1.2832 H   0  0  0  0  0  0  0  0  0  0  0  0
    4.5743    0.7764   -0.3178 H   0  0  0  0  0  0  0  0  0  0  0  0
    3.8585    2.1816    0.5175 H   0  0  0  0  0  0  0  0  0  0  0  0
    4.2909    2.3010   -1.2125 H   0  0  0  0  0  0  0  0  0  0  0  0
  1  2  1  0
  2  3  1  0
  3  4  1  0
  4  5  1  0
  5  6  2  0
  6  7  1  0
  7  8  2  0
  8  9  1  0
  9 10  2  0
 10 11  1  0
 11 12  1  0
 12 13  2  0
 12 14  1  0
 14 15  1  0
 10  5  1  0
  1 16  1  0
  1 17  1  0
  1 18  1  0
  2 19  1  0
  2 20  1  0
  4 21  1  0
  4 22  1  0
  6 23  1  0
  7 24  1  0
  8 25  1  0
  9 26  1  0
 14 27  1  0
 15 28  1  0
 15 29  1  0
 15 30  1  0
M  END
>  <Energy>  (5) 
-12.843147715138926

>  <Real charge>  (5) 
0

>  <Mult>  (5) 
1

$$$$
mol_133 296
     RDKit          3D

 30 30  0  0  0  0  0  0  0  0999 V2000
    4.0732    0.2347    0.3131 C   0  0  0  0  0  0  0  0  0  0  0  0
    3.0409    0.5433   -0.7562 C   0  0  0  0  0  0  0  0  0  0  0  0
    1.6922    1.6036   -0.1413 S   0  0  0  0  0  0  0  0  0  0  0  0
    0.8389    0.4627    0.9975 C   0  0  0  0  0  0  0  0  0  0  0  0
    0.2703   -0.7669    0.3387 C   0  0  0  0  0  0  0  0  0  0  0  0
    0.8320   -2.0266    0.6037 C   0  0  0  0  0  0  0  0  0  0  0  0
    0.3223   -3.1805    0.0006 C   0  0  0  0  0  0  0  0  0  0  0  0
   -0.7569   -3.0963   -0.8779 C   0  0  0  0  0  0  0  0  0  0  0  0
   -1.3334   -1.8588   -1.1514 C   0  0  0  0  0  0  0  0  0  0  0  0
   -0.8292   -0.7132   -0.5314 C   0  0  0  0  0  0  0  0  0  0  0  0
   -1.4068    0.5152   -0.8724 O   0  0  0  0  0  0  0  0  0  0  0  0
   -2.4363    0.9041   -0.0326 C   0  0  0  0  0  0  0  0  0  0  0  0
   -2.8629    0.2794    0.9288 O   0  0  0  0  0  0  0  0  0  0  0  0
   -2.8972    2.1285   -0.4318 N   0  0  0  0  0  0  0  0  0  0  0  0
   -3.8496    2.8701    0.3473 C   0  0  0  0  0  0  0  0  0  0  0  0
    3.6587   -0.3719    1.1231 H   0  0  0  0  0  0  0  0  0  0  0  0
    4.4924    1.1507    0.7426 H   0  0  0  0  0  0  0  0  0  0  0  0
    4.9011   -0.3326   -0.1257 H   0  0  0  0  0  0  0  0  0  0  0  0
    3.5286    1.0881   -1.5715 H   0  0  0  0  0  0  0  0  0  0  0  0
    2.6366   -0.3755   -1.1900 H   0  0  0  0  0  0  0  0  0  0  0  0
    1.5242    0.1936    1.8083 H   0  0  0  0  0  0  0  0  0  0  0  0
    0.0264    1.0167    1.4807 H   0  0  0  0  0  0  0  0  0  0  0  0
    1.6748   -2.1209    1.2853 H   0  0  0  0  0  0  0  0  0  0  0  0
    0.7686   -4.1479    0.2182 H   0  0  0  0  0  0  0  0  0  0  0  0
   -1.1498   -3.9946   -1.3465 H   0  0  0  0  0  0  0  0  0  0  0  0
   -2.1728   -1.7869   -1.8364 H   0  0  0  0  0  0  0  0  0  0  0  0
   -2.3370    2.5977   -1.1305 H   0  0  0  0  0  0  0  0  0  0  0  0
   -4.6157    2.2022    0.7502 H   0  0  0  0  0  0  0  0  0  0  0  0
   -3.3227    3.3570    1.1722 H   0  0  0  0  0  0  0  0  0  0  0  0
   -4.3111    3.6250   -0.2931 H   0  0  0  0  0  0  0  0  0  0  0  0
  1  2  1  0
  2  3  1  0
  3  4  1  0
  4  5  1  0
  5  6  2  0
  6  7  1  0
  7  8  2  0
  8  9  1  0
  9 10  2  0
 10 11  1  0
 11 12  1  0
 12 13  2  0
 12 14  1  0
 14 15  1  0
 10  5  1  0
  1 16  1  0
  1 17  1  0
  1 18  1  0
  2 19  1  0
  2 20  1  0
  4 21  1  0
  4 22  1  0
  6 23  1  0
  7 24  1  0
  8 25  1  0
  9 26  1  0
 14 27  1  0
 15 28  1  0
 15 29  1  0
 15 30  1  0
M  END
>  <Energy>  (6) 
-12.633137385914415

>  <Real charge>  (6) 
0

>  <Mult>  (6) 
1

$$$$
mol_133 87
     RDKit          3D

 30 30  0  0  0  0  0  0  0  0999 V2000
    3.1218    1.2210    1.6431 C   0  0  0  0  0  0  0  0  0  0  0  0
    1.6137    1.3585    1.5374 C   0  0  0  0  0  0  0  0  0  0  0  0
    0.7432   -0.1747    2.0001 S   0  0  0  0  0  0  0  0  0  0  0  0
    1.1890   -1.2700    0.6136 C   0  0  0  0  0  0  0  0  0  0  0  0
    0.8375   -0.7529   -0.7577 C   0  0  0  0  0  0  0  0  0  0  0  0
    1.8603   -0.4284   -1.6645 C   0  0  0  0  0  0  0  0  0  0  0  0
    1.5604    0.0235   -2.9529 C   0  0  0  0  0  0  0  0  0  0  0  0
    0.2338    0.1484   -3.3617 C   0  0  0  0  0  0  0  0  0  0  0  0
   -0.7964   -0.1738   -2.4820 C   0  0  0  0  0  0  0  0  0  0  0  0
   -0.4898   -0.6020   -1.1872 C   0  0  0  0  0  0  0  0  0  0  0  0
   -1.5292   -0.9721   -0.3216 O   0  0  0  0  0  0  0  0  0  0  0  0
   -2.3356    0.0724    0.1078 C   0  0  0  0  0  0  0  0  0  0  0  0
   -2.2518    1.2439   -0.2360 O   0  0  0  0  0  0  0  0  0  0  0  0
   -3.2523   -0.4104    1.0027 N   0  0  0  0  0  0  0  0  0  0  0  0
   -4.0832    0.4753    1.7707 C   0  0  0  0  0  0  0  0  0  0  0  0
    3.5204    0.4923    0.9319 H   0  0  0  0  0  0  0  0  0  0  0  0
    3.5968    2.1832    1.4240 H   0  0  0  0  0  0  0  0  0  0  0  0
    3.4272    0.9250    2.6523 H   0  0  0  0  0  0  0  0  0  0  0  0
    1.3157    1.6816    0.5360 H   0  0  0  0  0  0  0  0  0  0  0  0
    1.2799    2.1374    2.2310 H   0  0  0  0  0  0  0  0  0  0  0  0
    2.2583   -1.4972    0.6838 H   0  0  0  0  0  0  0  0  0  0  0  0
    0.6770   -2.2274    0.7669 H   0  0  0  0  0  0  0  0  0  0  0  0
    2.9046   -0.5285   -1.3760 H   0  0  0  0  0  0  0  0  0  0  0  0
    2.3643    0.2741   -3.6408 H   0  0  0  0  0  0  0  0  0  0  0  0
    0.0021    0.4967   -4.3647 H   0  0  0  0  0  0  0  0  0  0  0  0
   -1.8307   -0.0795   -2.7999 H   0  0  0  0  0  0  0  0  0  0  0  0
   -3.0723   -1.3462    1.3380 H   0  0  0  0  0  0  0  0  0  0  0  0
   -4.9071   -0.1017    2.1964 H   0  0  0  0  0  0  0  0  0  0  0  0
   -4.4750    1.2745    1.1357 H   0  0  0  0  0  0  0  0  0  0  0  0
   -3.4827    0.9116    2.5734 H   0  0  0  0  0  0  0  0  0  0  0  0
  1  2  1  0
  2  3  1  0
  3  4  1  0
  4  5  1  0
  5  6  2  0
  6  7  1  0
  7  8  2  0
  8  9  1  0
  9 10  2  0
 10 11  1  0
 11 12  1  0
 12 13  2  0
 12 14  1  0
 14 15  1  0
 10  5  1  0
  1 16  1  0
  1 17  1  0
  1 18  1  0
  2 19  1  0
  2 20  1  0
  4 21  1  0
  4 22  1  0
  6 23  1  0
  7 24  1  0
  8 25  1  0
  9 26  1  0
 14 27  1  0
 15 28  1  0
 15 29  1  0
 15 30  1  0
M  END
>  <Energy>  (7) 
-12.59155034206962

>  <Real charge>  (7) 
0

>  <Mult>  (7) 
1

$$$$
mol_133 420
     RDKit          3D

 30 30  0  0  0  0  0  0  0  0999 V2000
    3.7575    1.3088   -1.4059 C   0  0  0  0  0  0  0  0  0  0  0  0
    2.4290    0.9388   -0.7698 C   0  0  0  0  0  0  0  0  0  0  0  0
    2.3473    1.6049    0.9214 S   0  0  0  0  0  0  0  0  0  0  0  0
    0.6122    1.2106    1.3162 C   0  0  0  0  0  0  0  0  0  0  0  0
    0.3359   -0.2670    1.4038 C   0  0  0  0  0  0  0  0  0  0  0  0
    0.8308   -1.0084    2.4896 C   0  0  0  0  0  0  0  0  0  0  0  0
    0.5935   -2.3824    2.5881 C   0  0  0  0  0  0  0  0  0  0  0  0
   -0.1395   -3.0406    1.6018 C   0  0  0  0  0  0  0  0  0  0  0  0
   -0.6395   -2.3260    0.5162 C   0  0  0  0  0  0  0  0  0  0  0  0
   -0.4127   -0.9494    0.4342 C   0  0  0  0  0  0  0  0  0  0  0  0
   -0.8829   -0.2772   -0.7004 O   0  0  0  0  0  0  0  0  0  0  0  0
   -2.1921    0.1620   -0.5817 C   0  0  0  0  0  0  0  0  0  0  0  0
   -2.9109    0.0402    0.4000 O   0  0  0  0  0  0  0  0  0  0  0  0
   -2.5685    0.7651   -1.7504 N   0  0  0  0  0  0  0  0  0  0  0  0
   -3.9167    1.2103   -1.9750 C   0  0  0  0  0  0  0  0  0  0  0  0
    4.6018    0.8920   -0.8461 H   0  0  0  0  0  0  0  0  0  0  0  0
    3.8064    0.9086   -2.4241 H   0  0  0  0  0  0  0  0  0  0  0  0
    3.8841    2.3948   -1.4713 H   0  0  0  0  0  0  0  0  0  0  0  0
    2.3310   -0.1502   -0.7421 H   0  0  0  0  0  0  0  0  0  0  0  0
    1.6099    1.3539   -1.3650 H   0  0  0  0  0  0  0  0  0  0  0  0
    0.3767    1.6686    2.2841 H   0  0  0  0  0  0  0  0  0  0  0  0
   -0.0344    1.7100    0.5882 H   0  0  0  0  0  0  0  0  0  0  0  0
    1.4125   -0.5155    3.2667 H   0  0  0  0  0  0  0  0  0  0  0  0
    0.9848   -2.9390    3.4362 H   0  0  0  0  0  0  0  0  0  0  0  0
   -0.3199   -4.1093    1.6802 H   0  0  0  0  0  0  0  0  0  0  0  0
   -1.2069   -2.8370   -0.2557 H   0  0  0  0  0  0  0  0  0  0  0  0
   -1.9258    0.6816   -2.5253 H   0  0  0  0  0  0  0  0  0  0  0  0
   -4.3330    1.6462   -1.0630 H   0  0  0  0  0  0  0  0  0  0  0  0
   -3.9087    1.9544   -2.7747 H   0  0  0  0  0  0  0  0  0  0  0  0
   -4.5219    0.3512   -2.2761 H   0  0  0  0  0  0  0  0  0  0  0  0
  1  2  1  0
  2  3  1  0
  3  4  1  0
  4  5  1  0
  5  6  2  0
  6  7  1  0
  7  8  2  0
  8  9  1  0
  9 10  2  0
 10 11  1  0
 11 12  1  0
 12 13  2  0
 12 14  1  0
 14 15  1  0
 10  5  1  0
  1 16  1  0
  1 17  1  0
  1 18  1  0
  2 19  1  0
  2 20  1  0
  4 21  1  0
  4 22  1  0
  6 23  1  0
  7 24  1  0
  8 25  1  0
  9 26  1  0
 14 27  1  0
 15 28  1  0
 15 29  1  0
 15 30  1  0
M  END
>  <Energy>  (8) 
-12.543712245540778

>  <Real charge>  (8) 
0

>  <Mult>  (8) 
1

$$$$
