mol_260 115
     RDKit          3D

 36 39  0  0  0  0  0  0  0  0999 V2000
    0.0628   -2.4009   -0.9949 C   0  0  0  0  0  0  0  0  0  0  0  0
    0.4432   -1.0780   -0.3543 C   0  0  0  0  0  0  0  0  0  0  0  0
    1.8303   -0.8662   -0.0762 C   0  0  0  0  0  0  0  0  0  0  0  0
    2.7815   -1.9220   -0.0722 C   0  0  0  0  0  0  0  0  0  0  0  0
    4.1314   -1.7200    0.2104 C   0  0  0  0  0  0  0  0  0  0  0  0
    4.5748   -0.4477    0.5070 C   0  0  0  0  0  0  0  0  0  0  0  0
    3.6649    0.6090    0.5087 C   0  0  0  0  0  0  0  0  0  0  0  0
    2.2860    0.4358    0.2094 C   0  0  0  0  0  0  0  0  0  0  0  0
    1.3532    1.5094    0.1672 C   0  0  0  0  0  0  0  0  0  0  0  0
    1.8572    2.9383    0.2877 C   0  0  0  0  0  0  0  0  0  0  0  0
   -0.0529    1.2584    0.0626 C   0  0  0  0  0  0  0  0  0  0  0  0
   -0.9794    2.3191    0.1365 C   0  0  0  0  0  0  0  0  0  0  0  0
   -2.3532    2.1304    0.0543 C   0  0  0  0  0  0  0  0  0  0  0  0
   -2.8807    0.8529   -0.0187 C   0  0  0  0  0  0  0  0  0  0  0  0
   -4.2804    0.7084   -0.0177 C   0  0  0  0  0  0  0  0  0  0  0  0
   -4.8728   -0.5471    0.0042 C   0  0  0  0  0  0  0  0  0  0  0  0
   -4.0647   -1.6667    0.0547 C   0  0  0  0  0  0  0  0  0  0  0  0
   -2.6714   -1.5213    0.0405 C   0  0  0  0  0  0  0  0  0  0  0  0
   -2.0100   -0.2651   -0.0541 C   0  0  0  0  0  0  0  0  0  0  0  0
   -0.5527   -0.0617   -0.1160 C   0  0  0  0  0  0  0  0  0  0  0  0
    0.8347   -2.7326   -1.6988 H   0  0  0  0  0  0  0  0  0  0  0  0
   -0.0786   -3.1753   -0.2357 H   0  0  0  0  0  0  0  0  0  0  0  0
   -0.8264   -2.3059   -1.6245 H   0  0  0  0  0  0  0  0  0  0  0  0
    2.4732   -2.9473   -0.2639 H   0  0  0  0  0  0  0  0  0  0  0  0
    4.8219   -2.5585    0.2103 H   0  0  0  0  0  0  0  0  0  0  0  0
    5.6199   -0.2697    0.7436 H   0  0  0  0  0  0  0  0  0  0  0  0
    4.0616    1.5853    0.7736 H   0  0  0  0  0  0  0  0  0  0  0  0
    2.8884    3.0517   -0.0567 H   0  0  0  0  0  0  0  0  0  0  0  0
    1.7864    3.2770    1.3256 H   0  0  0  0  0  0  0  0  0  0  0  0
    1.2980    3.6171   -0.3635 H   0  0  0  0  0  0  0  0  0  0  0  0
   -0.6537    3.3471    0.2712 H   0  0  0  0  0  0  0  0  0  0  0  0
   -3.0020    3.0023    0.1022 H   0  0  0  0  0  0  0  0  0  0  0  0
   -4.9255    1.5851   -0.0133 H   0  0  0  0  0  0  0  0  0  0  0  0
   -5.9543   -0.6452    0.0148 H   0  0  0  0  0  0  0  0  0  0  0  0
   -4.5057   -2.6579    0.1196 H   0  0  0  0  0  0  0  0  0  0  0  0
   -2.1046   -2.4379    0.1563 H   0  0  0  0  0  0  0  0  0  0  0  0
  1  2  1  0
  2  3  2  0
  3  4  1  0
  4  5  2  0
  5  6  1  0
  6  7  2  0
  7  8  1  0
  8  9  2  0
  9 10  1  0
  9 11  1  0
 11 12  2  0
 12 13  1  0
 13 14  2  0
 14 15  1  0
 15 16  2  0
 16 17  1  0
 17 18  2  0
 18 19  1  0
 19 20  2  0
 20  2  1  0
  8  3  1  0
 20 11  1  0
 19 14  1  0
  1 21  1  0
  1 22  1  0
  1 23  1  0
  4 24  1  0
  5 25  1  0
  6 26  1  0
  7 27  1  0
 10 28  1  0
 10 29  1  0
 10 30  1  0
 12 31  1  0
 13 32  1  0
 15 33  1  0
 16 34  1  0
 17 35  1  0
 18 36  1  0
M  END
>  <Energy>  (1) 
94.75013228872311

>  <Real charge>  (1) 
0

>  <Mult>  (1) 
1

$$$$
mol_260 107
     RDKit          3D

 36 39  0  0  0  0  0  0  0  0999 V2000
    0.1120   -2.5191   -0.6036 C   0  0  0  0  0  0  0  0  0  0  0  0
   -0.3710   -1.1439   -0.1714 C   0  0  0  0  0  0  0  0  0  0  0  0
   -1.7828   -0.9769    0.0034 C   0  0  0  0  0  0  0  0  0  0  0  0
   -2.6846   -2.0748    0.0575 C   0  0  0  0  0  0  0  0  0  0  0  0
   -4.0628   -1.9160    0.1901 C   0  0  0  0  0  0  0  0  0  0  0  0
   -4.5886   -0.6438    0.2693 C   0  0  0  0  0  0  0  0  0  0  0  0
   -3.7284    0.4532    0.2350 C   0  0  0  0  0  0  0  0  0  0  0  0
   -2.3165    0.3225    0.1243 C   0  0  0  0  0  0  0  0  0  0  0  0
   -1.4271    1.4351    0.0997 C   0  0  0  0  0  0  0  0  0  0  0  0
   -1.9907    2.8407    0.2419 C   0  0  0  0  0  0  0  0  0  0  0  0
   -0.0154    1.2532   -0.0615 C   0  0  0  0  0  0  0  0  0  0  0  0
    0.8408    2.3601   -0.2391 C   0  0  0  0  0  0  0  0  0  0  0  0
    2.2222    2.2410   -0.3266 C   0  0  0  0  0  0  0  0  0  0  0  0
    2.8271    1.0072   -0.1603 C   0  0  0  0  0  0  0  0  0  0  0  0
    4.2328    0.9448   -0.1507 C   0  0  0  0  0  0  0  0  0  0  0  0
    4.8964   -0.2502    0.0950 C   0  0  0  0  0  0  0  0  0  0  0  0
    4.1548   -1.3864    0.3592 C   0  0  0  0  0  0  0  0  0  0  0  0
    2.7557   -1.3259    0.3338 C   0  0  0  0  0  0  0  0  0  0  0  0
    2.0250   -0.1471    0.0194 C   0  0  0  0  0  0  0  0  0  0  0  0
    0.5604   -0.0455   -0.0648 C   0  0  0  0  0  0  0  0  0  0  0  0
    1.0235   -2.4613   -1.2048 H   0  0  0  0  0  0  0  0  0  0  0  0
    0.2599   -3.1684    0.2639 H   0  0  0  0  0  0  0  0  0  0  0  0
   -0.6027   -2.9934   -1.2855 H   0  0  0  0  0  0  0  0  0  0  0  0
   -2.3174   -3.0977    0.0148 H   0  0  0  0  0  0  0  0  0  0  0  0
   -4.7131   -2.7852    0.2266 H   0  0  0  0  0  0  0  0  0  0  0  0
   -5.6609   -0.4953    0.3598 H   0  0  0  0  0  0  0  0  0  0  0  0
   -4.1996    1.4307    0.2854 H   0  0  0  0  0  0  0  0  0  0  0  0
   -1.2985    3.5087    0.7633 H   0  0  0  0  0  0  0  0  0  0  0  0
   -2.8846    2.8705    0.8700 H   0  0  0  0  0  0  0  0  0  0  0  0
   -2.2254    3.2525   -0.7441 H   0  0  0  0  0  0  0  0  0  0  0  0
    0.4453    3.3675   -0.3413 H   0  0  0  0  0  0  0  0  0  0  0  0
    2.8149    3.1409   -0.4747 H   0  0  0  0  0  0  0  0  0  0  0  0
    4.8258    1.8422   -0.3160 H   0  0  0  0  0  0  0  0  0  0  0  0
    5.9818   -0.2833    0.1108 H   0  0  0  0  0  0  0  0  0  0  0  0
    4.6529   -2.3219    0.5996 H   0  0  0  0  0  0  0  0  0  0  0  0
    2.2387   -2.2349    0.6218 H   0  0  0  0  0  0  0  0  0  0  0  0
  1  2  1  0
  2  3  2  0
  3  4  1  0
  4  5  2  0
  5  6  1  0
  6  7  2  0
  7  8  1  0
  8  9  2  0
  9 10  1  0
  9 11  1  0
 11 12  2  0
 12 13  1  0
 13 14  2  0
 14 15  1  0
 15 16  2  0
 16 17  1  0
 17 18  2  0
 18 19  1  0
 19 20  2  0
 20  2  1  0
  8  3  1  0
 20 11  1  0
 19 14  1  0
  1 21  1  0
  1 22  1  0
  1 23  1  0
  4 24  1  0
  5 25  1  0
  6 26  1  0
  7 27  1  0
 10 28  1  0
 10 29  1  0
 10 30  1  0
 12 31  1  0
 13 32  1  0
 15 33  1  0
 16 34  1  0
 17 35  1  0
 18 36  1  0
M  END
>  <Energy>  (2) 
95.04816384718855

>  <Real charge>  (2) 
0

>  <Mult>  (2) 
1

$$$$
