mol_410 27
     RDKit          3D

 22 22  0  0  0  0  0  0  0  0999 V2000
    0.4200    2.7501   -0.6341 O   0  0  0  0  0  0  0  0  0  0  0  0
    0.2157    1.5243    0.0745 C   0  0  0  0  0  0  0  0  0  0  0  0
   -1.1183    0.9427   -0.3955 C   0  0  0  0  0  0  0  0  0  0  0  0
   -1.6074   -0.2083    0.4760 C   0  0  0  0  0  0  0  0  0  0  0  0
   -1.0755   -1.5858    0.0931 C   0  0  0  0  0  0  0  0  0  0  0  0
    0.3845   -1.6740   -0.3404 C   0  0  0  0  0  0  0  0  0  0  0  0
    1.3447   -0.7722    0.4282 C   0  0  0  0  0  0  0  0  0  0  0  0
    1.4325    0.6320   -0.1636 C   0  0  0  0  0  0  0  0  0  0  0  0
    1.2407    3.1497   -0.2987 H   0  0  0  0  0  0  0  0  0  0  0  0
    0.1475    1.7791    1.1389 H   0  0  0  0  0  0  0  0  0  0  0  0
   -1.8670    1.7453   -0.3521 H   0  0  0  0  0  0  0  0  0  0  0  0
   -1.0692    0.6525   -1.4522 H   0  0  0  0  0  0  0  0  0  0  0  0
   -2.7028   -0.2504    0.4205 H   0  0  0  0  0  0  0  0  0  0  0  0
   -1.3736   -0.0041    1.5283 H   0  0  0  0  0  0  0  0  0  0  0  0
   -1.6930   -1.9935   -0.7177 H   0  0  0  0  0  0  0  0  0  0  0  0
   -1.2334   -2.2563    0.9478 H   0  0  0  0  0  0  0  0  0  0  0  0
    0.7042   -2.7167   -0.2165 H   0  0  0  0  0  0  0  0  0  0  0  0
    0.4598   -1.4682   -1.4155 H   0  0  0  0  0  0  0  0  0  0  0  0
    2.3460   -1.2167    0.3612 H   0  0  0  0  0  0  0  0  0  0  0  0
    1.0919   -0.7364    1.4939 H   0  0  0  0  0  0  0  0  0  0  0  0
    1.6422    0.5729   -1.2400 H   0  0  0  0  0  0  0  0  0  0  0  0
    2.3106    1.1343    0.2641 H   0  0  0  0  0  0  0  0  0  0  0  0
  1  2  1  0
  2  3  1  0
  3  4  1  0
  4  5  1  0
  5  6  1  0
  6  7  1  0
  7  8  1  0
  8  2  1  0
  1  9  1  0
  2 10  1  0
  3 11  1  0
  3 12  1  0
  4 13  1  0
  4 14  1  0
  5 15  1  0
  5 16  1  0
  6 17  1  0
  6 18  1  0
  7 19  1  0
  7 20  1  0
  8 21  1  0
  8 22  1  0
M  END
>  <Energy>  (1) 
11.61030078970782

>  <Real charge>  (1) 
0

>  <Mult>  (1) 
1

$$$$
mol_410 50
     RDKit          3D

 22 22  0  0  0  0  0  0  0  0999 V2000
    2.8664    0.2442    0.1027 O   0  0  0  0  0  0  0  0  0  0  0  0
    1.5256    0.0968   -0.3738 C   0  0  0  0  0  0  0  0  0  0  0  0
    0.7151    1.3102    0.0867 C   0  0  0  0  0  0  0  0  0  0  0  0
   -0.6372    1.4213   -0.6079 C   0  0  0  0  0  0  0  0  0  0  0  0
   -1.7701    0.6336    0.0427 C   0  0  0  0  0  0  0  0  0  0  0  0
   -1.4341   -0.7497    0.5917 C   0  0  0  0  0  0  0  0  0  0  0  0
   -0.4506   -1.5597   -0.2466 C   0  0  0  0  0  0  0  0  0  0  0  0
    1.0045   -1.2578    0.1019 C   0  0  0  0  0  0  0  0  0  0  0  0
    2.8347    0.2792    1.0741 H   0  0  0  0  0  0  0  0  0  0  0  0
    1.5868    0.0940   -1.4682 H   0  0  0  0  0  0  0  0  0  0  0  0
    1.2972    2.2107   -0.1514 H   0  0  0  0  0  0  0  0  0  0  0  0
    0.6057    1.3180    1.1781 H   0  0  0  0  0  0  0  0  0  0  0  0
   -0.5409    1.1243   -1.6597 H   0  0  0  0  0  0  0  0  0  0  0  0
   -0.9372    2.4769   -0.6262 H   0  0  0  0  0  0  0  0  0  0  0  0
   -2.1919    1.2283    0.8633 H   0  0  0  0  0  0  0  0  0  0  0  0
   -2.5778    0.5365   -0.6943 H   0  0  0  0  0  0  0  0  0  0  0  0
   -2.3740   -1.3108    0.6725 H   0  0  0  0  0  0  0  0  0  0  0  0
   -1.0586   -0.6541    1.6182 H   0  0  0  0  0  0  0  0  0  0  0  0
   -0.6358   -1.4265   -1.3184 H   0  0  0  0  0  0  0  0  0  0  0  0
   -0.6232   -2.6218   -0.0309 H   0  0  0  0  0  0  0  0  0  0  0  0
    1.6391   -2.0378   -0.3397 H   0  0  0  0  0  0  0  0  0  0  0  0
    1.1564   -1.3555    1.1851 H   0  0  0  0  0  0  0  0  0  0  0  0
  1  2  1  0
  2  3  1  0
  3  4  1  0
  4  5  1  0
  5  6  1  0
  6  7  1  0
  7  8  1  0
  8  2  1  0
  1  9  1  0
  2 10  1  0
  3 11  1  0
  3 12  1  0
  4 13  1  0
  4 14  1  0
  5 15  1  0
  5 16  1  0
  6 17  1  0
  6 18  1  0
  7 19  1  0
  7 20  1  0
  8 21  1  0
  8 22  1  0
M  END
>  <Energy>  (2) 
11.723503189421585

>  <Real charge>  (2) 
0

>  <Mult>  (2) 
1

$$$$
mol_410 40
     RDKit          3D

 22 22  0  0  0  0  0  0  0  0999 V2000
    2.7329    0.6162   -0.2373 O   0  0  0  0  0  0  0  0  0  0  0  0
    1.3442    0.2906   -0.3674 C   0  0  0  0  0  0  0  0  0  0  0  0
    0.5431    1.4785    0.1715 C   0  0  0  0  0  0  0  0  0  0  0  0
   -0.9591    1.4303   -0.0780 C   0  0  0  0  0  0  0  0  0  0  0  0
   -1.6678    0.1811    0.4394 C   0  0  0  0  0  0  0  0  0  0  0  0
   -1.3565   -1.0576   -0.3930 C   0  0  0  0  0  0  0  0  0  0  0  0
   -0.1004   -1.8155    0.0230 C   0  0  0  0  0  0  0  0  0  0  0  0
    1.1147   -0.9898    0.4336 C   0  0  0  0  0  0  0  0  0  0  0  0
    2.9045    1.3949   -0.7940 H   0  0  0  0  0  0  0  0  0  0  0  0
    1.1492    0.1273   -1.4329 H   0  0  0  0  0  0  0  0  0  0  0  0
    0.7318    1.5885    1.2478 H   0  0  0  0  0  0  0  0  0  0  0  0
    0.9322    2.4032   -0.2752 H   0  0  0  0  0  0  0  0  0  0  0  0
   -1.1520    1.5458   -1.1519 H   0  0  0  0  0  0  0  0  0  0  0  0
   -1.4090    2.3063    0.4061 H   0  0  0  0  0  0  0  0  0  0  0  0
   -1.4478    0.0138    1.5000 H   0  0  0  0  0  0  0  0  0  0  0  0
   -2.7473    0.3674    0.3710 H   0  0  0  0  0  0  0  0  0  0  0  0
   -1.2879   -0.7883   -1.4543 H   0  0  0  0  0  0  0  0  0  0  0  0
   -2.2021   -1.7534   -0.3189 H   0  0  0  0  0  0  0  0  0  0  0  0
   -0.3492   -2.4853    0.8563 H   0  0  0  0  0  0  0  0  0  0  0  0
    0.1842   -2.4741   -0.8077 H   0  0  0  0  0  0  0  0  0  0  0  0
    2.0003   -1.6356    0.3604 H   0  0  0  0  0  0  0  0  0  0  0  0
    1.0420   -0.7441    1.5015 H   0  0  0  0  0  0  0  0  0  0  0  0
  1  2  1  0
  2  3  1  0
  3  4  1  0
  4  5  1  0
  5  6  1  0
  6  7  1  0
  7  8  1  0
  8  2  1  0
  1  9  1  0
  2 10  1  0
  3 11  1  0
  3 12  1  0
  4 13  1  0
  4 14  1  0
  5 15  1  0
  5 16  1  0
  6 17  1  0
  6 18  1  0
  7 19  1  0
  7 20  1  0
  8 21  1  0
  8 22  1  0
M  END
>  <Energy>  (3) 
11.793928249315057

>  <Real charge>  (3) 
0

>  <Mult>  (3) 
1

$$$$
mol_410 86
     RDKit          3D

 22 22  0  0  0  0  0  0  0  0999 V2000
    2.3263   -1.1112   -0.7411 O   0  0  0  0  0  0  0  0  0  0  0  0
    1.5271   -0.4282    0.2291 C   0  0  0  0  0  0  0  0  0  0  0  0
    1.1209    0.9242   -0.3565 C   0  0  0  0  0  0  0  0  0  0  0  0
   -0.0695    1.5936    0.3209 C   0  0  0  0  0  0  0  0  0  0  0  0
   -1.4060    1.1459   -0.2687 C   0  0  0  0  0  0  0  0  0  0  0  0
   -1.8315   -0.2756    0.0842 C   0  0  0  0  0  0  0  0  0  0  0  0
   -0.8213   -1.3675   -0.2665 C   0  0  0  0  0  0  0  0  0  0  0  0
    0.3962   -1.3630    0.6573 C   0  0  0  0  0  0  0  0  0  0  0  0
    3.0780   -0.5342   -0.9600 H   0  0  0  0  0  0  0  0  0  0  0  0
    2.1715   -0.2648    1.1016 H   0  0  0  0  0  0  0  0  0  0  0  0
    0.9445    0.8360   -1.4366 H   0  0  0  0  0  0  0  0  0  0  0  0
    1.9909    1.5897   -0.2735 H   0  0  0  0  0  0  0  0  0  0  0  0
    0.0144    2.6751    0.1540 H   0  0  0  0  0  0  0  0  0  0  0  0
   -0.0470    1.4440    1.4063 H   0  0  0  0  0  0  0  0  0  0  0  0
   -1.3820    1.2565   -1.3601 H   0  0  0  0  0  0  0  0  0  0  0  0
   -2.1867    1.8296    0.0879 H   0  0  0  0  0  0  0  0  0  0  0  0
   -2.0726   -0.3270    1.1533 H   0  0  0  0  0  0  0  0  0  0  0  0
   -2.7675   -0.4886   -0.4476 H   0  0  0  0  0  0  0  0  0  0  0  0
   -0.5249   -1.3061   -1.3198 H   0  0  0  0  0  0  0  0  0  0  0  0
   -1.3305   -2.3320   -0.1426 H   0  0  0  0  0  0  0  0  0  0  0  0
    0.0792   -1.1096    1.6764 H   0  0  0  0  0  0  0  0  0  0  0  0
    0.7906   -2.3867    0.7021 H   0  0  0  0  0  0  0  0  0  0  0  0
  1  2  1  0
  2  3  1  0
  3  4  1  0
  4  5  1  0
  5  6  1  0
  6  7  1  0
  7  8  1  0
  8  2  1  0
  1  9  1  0
  2 10  1  0
  3 11  1  0
  3 12  1  0
  4 13  1  0
  4 14  1  0
  5 15  1  0
  5 16  1  0
  6 17  1  0
  6 18  1  0
  7 19  1  0
  7 20  1  0
  8 21  1  0
  8 22  1  0
M  END
>  <Energy>  (4) 
11.87332894324175

>  <Real charge>  (4) 
0

>  <Mult>  (4) 
1

$$$$
mol_410 17
     RDKit          3D

 22 22  0  0  0  0  0  0  0  0999 V2000
    2.3403   -1.5434    0.5592 O   0  0  0  0  0  0  0  0  0  0  0  0
    1.2142   -0.7786    0.1174 C   0  0  0  0  0  0  0  0  0  0  0  0
   -0.0474   -1.4460    0.6615 C   0  0  0  0  0  0  0  0  0  0  0  0
   -1.2804   -1.1766   -0.1986 C   0  0  0  0  0  0  0  0  0  0  0  0
   -1.8267    0.2452   -0.1375 C   0  0  0  0  0  0  0  0  0  0  0  0
   -0.8256    1.3434   -0.4907 C   0  0  0  0  0  0  0  0  0  0  0  0
    0.2028    1.5775    0.6104 C   0  0  0  0  0  0  0  0  0  0  0  0
    1.4246    0.6656    0.5718 C   0  0  0  0  0  0  0  0  0  0  0  0
    3.1374   -1.1384    0.1763 H   0  0  0  0  0  0  0  0  0  0  0  0
    1.2156   -0.8287   -0.9778 H   0  0  0  0  0  0  0  0  0  0  0  0
   -0.2263   -1.1523    1.7030 H   0  0  0  0  0  0  0  0  0  0  0  0
    0.1101   -2.5326    0.6857 H   0  0  0  0  0  0  0  0  0  0  0  0
   -2.0788   -1.8577    0.1220 H   0  0  0  0  0  0  0  0  0  0  0  0
   -1.0624   -1.4366   -1.2421 H   0  0  0  0  0  0  0  0  0  0  0  0
   -2.6702    0.3110   -0.8363 H   0  0  0  0  0  0  0  0  0  0  0  0
   -2.2445    0.4320    0.8597 H   0  0  0  0  0  0  0  0  0  0  0  0
   -0.3408    1.1422   -1.4527 H   0  0  0  0  0  0  0  0  0  0  0  0
   -1.3947    2.2732   -0.6180 H   0  0  0  0  0  0  0  0  0  0  0  0
   -0.2801    1.4951    1.5922 H   0  0  0  0  0  0  0  0  0  0  0  0
    0.5600    2.6133    0.5441 H   0  0  0  0  0  0  0  0  0  0  0  0
    1.8958    0.6788    1.5640 H   0  0  0  0  0  0  0  0  0  0  0  0
    2.1768    1.1138   -0.0919 H   0  0  0  0  0  0  0  0  0  0  0  0
  1  2  1  0
  2  3  1  0
  3  4  1  0
  4  5  1  0
  5  6  1  0
  6  7  1  0
  7  8  1  0
  8  2  1  0
  1  9  1  0
  2 10  1  0
  3 11  1  0
  3 12  1  0
  4 13  1  0
  4 14  1  0
  5 15  1  0
  5 16  1  0
  6 17  1  0
  6 18  1  0
  7 19  1  0
  7 20  1  0
  8 21  1  0
  8 22  1  0
M  END
>  <Energy>  (5) 
11.962564372596372

>  <Real charge>  (5) 
0

>  <Mult>  (5) 
1

$$$$
mol_410 67
     RDKit          3D

 22 22  0  0  0  0  0  0  0  0999 V2000
    2.5374   -0.1946    1.0071 O   0  0  0  0  0  0  0  0  0  0  0  0
    1.6448    0.0622   -0.0808 C   0  0  0  0  0  0  0  0  0  0  0  0
    0.8121    1.2943    0.2713 C   0  0  0  0  0  0  0  0  0  0  0  0
   -0.4308    1.4981   -0.5874 C   0  0  0  0  0  0  0  0  0  0  0  0
   -1.6477    0.7524   -0.0429 C   0  0  0  0  0  0  0  0  0  0  0  0
   -1.6106   -0.7633   -0.2076 C   0  0  0  0  0  0  0  0  0  0  0  0
   -0.3886   -1.4568    0.3939 C   0  0  0  0  0  0  0  0  0  0  0  0
    0.8846   -1.2215   -0.4183 C   0  0  0  0  0  0  0  0  0  0  0  0
    2.0030   -0.4572    1.7759 H   0  0  0  0  0  0  0  0  0  0  0  0
    2.2835    0.3039   -0.9387 H   0  0  0  0  0  0  0  0  0  0  0  0
    1.4646    2.1710    0.1595 H   0  0  0  0  0  0  0  0  0  0  0  0
    0.5430    1.2873    1.3356 H   0  0  0  0  0  0  0  0  0  0  0  0
   -0.2406    1.2311   -1.6331 H   0  0  0  0  0  0  0  0  0  0  0  0
   -0.6731    2.5685   -0.5782 H   0  0  0  0  0  0  0  0  0  0  0  0
   -1.7862    0.9986    1.0173 H   0  0  0  0  0  0  0  0  0  0  0  0
   -2.5407    1.1258   -0.5599 H   0  0  0  0  0  0  0  0  0  0  0  0
   -2.5091   -1.1751    0.2693 H   0  0  0  0  0  0  0  0  0  0  0  0
   -1.6909   -1.0151   -1.2725 H   0  0  0  0  0  0  0  0  0  0  0  0
   -0.2533   -1.1738    1.4437 H   0  0  0  0  0  0  0  0  0  0  0  0
   -0.5924   -2.5353    0.3871 H   0  0  0  0  0  0  0  0  0  0  0  0
    0.6362   -1.2249   -1.4869 H   0  0  0  0  0  0  0  0  0  0  0  0
    1.5547   -2.0755   -0.2544 H   0  0  0  0  0  0  0  0  0  0  0  0
  1  2  1  0
  2  3  1  0
  3  4  1  0
  4  5  1  0
  5  6  1  0
  6  7  1  0
  7  8  1  0
  8  2  1  0
  1  9  1  0
  2 10  1  0
  3 11  1  0
  3 12  1  0
  4 13  1  0
  4 14  1  0
  5 15  1  0
  5 16  1  0
  6 17  1  0
  6 18  1  0
  7 19  1  0
  7 20  1  0
  8 21  1  0
  8 22  1  0
M  END
>  <Energy>  (6) 
12.026807356270211

>  <Real charge>  (6) 
0

>  <Mult>  (6) 
1

$$$$
mol_410 160
     RDKit          3D

 22 22  0  0  0  0  0  0  0  0999 V2000
    2.8267    0.2950    0.2319 O   0  0  0  0  0  0  0  0  0  0  0  0
    1.4075    0.2361    0.4073 C   0  0  0  0  0  0  0  0  0  0  0  0
    0.9268   -1.1712    0.0556 C   0  0  0  0  0  0  0  0  0  0  0  0
   -0.3550   -1.5618    0.7881 C   0  0  0  0  0  0  0  0  0  0  0  0
   -1.6204   -0.8498    0.3239 C   0  0  0  0  0  0  0  0  0  0  0  0
   -1.5651    0.6759    0.3740 C   0  0  0  0  0  0  0  0  0  0  0  0
   -0.7006    1.2699   -0.7326 C   0  0  0  0  0  0  0  0  0  0  0  0
    0.7903    1.3604   -0.4242 C   0  0  0  0  0  0  0  0  0  0  0  0
    3.0218    0.0640   -0.6925 H   0  0  0  0  0  0  0  0  0  0  0  0
    1.2290    0.4319    1.4708 H   0  0  0  0  0  0  0  0  0  0  0  0
    1.7057   -1.8911    0.3398 H   0  0  0  0  0  0  0  0  0  0  0  0
    0.8053   -1.2817   -1.0288 H   0  0  0  0  0  0  0  0  0  0  0  0
   -0.2237   -1.4021    1.8657 H   0  0  0  0  0  0  0  0  0  0  0  0
   -0.5095   -2.6406    0.6591 H   0  0  0  0  0  0  0  0  0  0  0  0
   -1.8708   -1.1781   -0.6926 H   0  0  0  0  0  0  0  0  0  0  0  0
   -2.4474   -1.1850    0.9627 H   0  0  0  0  0  0  0  0  0  0  0  0
   -2.5893    1.0429    0.2294 H   0  0  0  0  0  0  0  0  0  0  0  0
   -1.2461    1.0280    1.3615 H   0  0  0  0  0  0  0  0  0  0  0  0
   -1.0562    2.2852   -0.9504 H   0  0  0  0  0  0  0  0  0  0  0  0
   -0.8448    0.7022   -1.6605 H   0  0  0  0  0  0  0  0  0  0  0  0
    0.9849    2.3045    0.1030 H   0  0  0  0  0  0  0  0  0  0  0  0
    1.3309    1.4653   -1.3746 H   0  0  0  0  0  0  0  0  0  0  0  0
  1  2  1  0
  2  3  1  0
  3  4  1  0
  4  5  1  0
  5  6  1  0
  6  7  1  0
  7  8  1  0
  8  2  1  0
  1  9  1  0
  2 10  1  0
  3 11  1  0
  3 12  1  0
  4 13  1  0
  4 14  1  0
  5 15  1  0
  5 16  1  0
  6 17  1  0
  6 18  1  0
  7 19  1  0
  7 20  1  0
  8 21  1  0
  8 22  1  0
M  END
>  <Energy>  (7) 
12.121841707420668

>  <Real charge>  (7) 
0

>  <Mult>  (7) 
1

$$$$
mol_410 142
     RDKit          3D

 22 22  0  0  0  0  0  0  0  0999 V2000
    1.5626   -0.4413    1.3278 O   0  0  0  0  0  0  0  0  0  0  0  0
    1.3856   -0.6259   -0.0699 C   0  0  0  0  0  0  0  0  0  0  0  0
    0.2862   -1.6557   -0.3344 C   0  0  0  0  0  0  0  0  0  0  0  0
   -1.0806   -1.3587    0.2763 C   0  0  0  0  0  0  0  0  0  0  0  0
   -1.6952   -0.0216   -0.1320 C   0  0  0  0  0  0  0  0  0  0  0  0
   -1.0408    1.1655    0.5652 C   0  0  0  0  0  0  0  0  0  0  0  0
    0.2228    1.7044   -0.0986 C   0  0  0  0  0  0  0  0  0  0  0  0
    1.1469    0.7025   -0.7873 C   0  0  0  0  0  0  0  0  0  0  0  0
    2.2806    0.2031    1.4496 H   0  0  0  0  0  0  0  0  0  0  0  0
    2.3199   -1.0521   -0.4565 H   0  0  0  0  0  0  0  0  0  0  0  0
    0.1747   -1.7993   -1.4165 H   0  0  0  0  0  0  0  0  0  0  0  0
    0.6161   -2.6202    0.0734 H   0  0  0  0  0  0  0  0  0  0  0  0
   -1.0204   -1.4239    1.3697 H   0  0  0  0  0  0  0  0  0  0  0  0
   -1.7646   -2.1585   -0.0352 H   0  0  0  0  0  0  0  0  0  0  0  0
   -1.6868    0.1019   -1.2209 H   0  0  0  0  0  0  0  0  0  0  0  0
   -2.7503   -0.0433    0.1697 H   0  0  0  0  0  0  0  0  0  0  0  0
   -1.7658    1.9885    0.6117 H   0  0  0  0  0  0  0  0  0  0  0  0
   -0.8251    0.9093    1.6099 H   0  0  0  0  0  0  0  0  0  0  0  0
   -0.0670    2.4542   -0.8464 H   0  0  0  0  0  0  0  0  0  0  0  0
    0.7935    2.2573    0.6589 H   0  0  0  0  0  0  0  0  0  0  0  0
    2.1171    1.2035   -0.9073 H   0  0  0  0  0  0  0  0  0  0  0  0
    0.7903    0.5104   -1.8070 H   0  0  0  0  0  0  0  0  0  0  0  0
  1  2  1  0
  2  3  1  0
  3  4  1  0
  4  5  1  0
  5  6  1  0
  6  7  1  0
  7  8  1  0
  8  2  1  0
  1  9  1  0
  2 10  1  0
  3 11  1  0
  3 12  1  0
  4 13  1  0
  4 14  1  0
  5 15  1  0
  5 16  1  0
  6 17  1  0
  6 18  1  0
  7 19  1  0
  7 20  1  0
  8 21  1  0
  8 22  1  0
M  END
>  <Energy>  (8) 
12.262742098294538

>  <Real charge>  (8) 
0

>  <Mult>  (8) 
1

$$$$
mol_410 65
     RDKit          3D

 22 22  0  0  0  0  0  0  0  0999 V2000
    2.1065    0.4701    0.9670 O   0  0  0  0  0  0  0  0  0  0  0  0
    1.5454    0.2770   -0.3309 C   0  0  0  0  0  0  0  0  0  0  0  0
    0.9176   -1.1166   -0.4384 C   0  0  0  0  0  0  0  0  0  0  0  0
   -0.0998   -1.4380    0.6554 C   0  0  0  0  0  0  0  0  0  0  0  0
   -1.5226   -0.9613    0.3801 C   0  0  0  0  0  0  0  0  0  0  0  0
   -1.6880    0.4047   -0.2782 C   0  0  0  0  0  0  0  0  0  0  0  0
   -0.6948    1.4701    0.1745 C   0  0  0  0  0  0  0  0  0  0  0  0
    0.6048    1.4416   -0.6324 C   0  0  0  0  0  0  0  0  0  0  0  0
    2.7360   -0.2540    1.1250 H   0  0  0  0  0  0  0  0  0  0  0  0
    2.3794    0.3342   -1.0411 H   0  0  0  0  0  0  0  0  0  0  0  0
    0.4836   -1.2696   -1.4332 H   0  0  0  0  0  0  0  0  0  0  0  0
    1.7318   -1.8465   -0.3363 H   0  0  0  0  0  0  0  0  0  0  0  0
    0.2359   -1.0426    1.6211 H   0  0  0  0  0  0  0  0  0  0  0  0
   -0.1386   -2.5275    0.7854 H   0  0  0  0  0  0  0  0  0  0  0  0
   -2.0310   -1.7026   -0.2499 H   0  0  0  0  0  0  0  0  0  0  0  0
   -2.0676   -0.9642    1.3330 H   0  0  0  0  0  0  0  0  0  0  0  0
   -1.6431    0.2919   -1.3686 H   0  0  0  0  0  0  0  0  0  0  0  0
   -2.7049    0.7557   -0.0603 H   0  0  0  0  0  0  0  0  0  0  0  0
   -1.1589    2.4503    0.0056 H   0  0  0  0  0  0  0  0  0  0  0  0
   -0.4993    1.4022    1.2505 H   0  0  0  0  0  0  0  0  0  0  0  0
    0.3674    1.4476   -1.7035 H   0  0  0  0  0  0  0  0  0  0  0  0
    1.1401    2.3775   -0.4249 H   0  0  0  0  0  0  0  0  0  0  0  0
  1  2  1  0
  2  3  1  0
  3  4  1  0
  4  5  1  0
  5  6  1  0
  6  7  1  0
  7  8  1  0
  8  2  1  0
  1  9  1  0
  2 10  1  0
  3 11  1  0
  3 12  1  0
  4 13  1  0
  4 14  1  0
  5 15  1  0
  5 16  1  0
  6 17  1  0
  6 18  1  0
  7 19  1  0
  7 20  1  0
  8 21  1  0
  8 22  1  0
M  END
>  <Energy>  (9) 
12.313691089320207

>  <Real charge>  (9) 
0

>  <Mult>  (9) 
1

$$$$
mol_410 53
     RDKit          3D

 22 22  0  0  0  0  0  0  0  0999 V2000
    2.2827    0.2795    0.5425 O   0  0  0  0  0  0  0  0  0  0  0  0
    1.4697    0.1352   -0.6215 C   0  0  0  0  0  0  0  0  0  0  0  0
    0.4906    1.3101   -0.7023 C   0  0  0  0  0  0  0  0  0  0  0  0
   -0.3648    1.5108    0.5481 C   0  0  0  0  0  0  0  0  0  0  0  0
   -1.6382    0.6729    0.6073 C   0  0  0  0  0  0  0  0  0  0  0  0
   -1.5536   -0.7665    0.1101 C   0  0  0  0  0  0  0  0  0  0  0  0
   -0.2489   -1.4904    0.4271 C   0  0  0  0  0  0  0  0  0  0  0  0
    0.8266   -1.2510   -0.6342 C   0  0  0  0  0  0  0  0  0  0  0  0
    2.9366   -0.4401    0.5371 H   0  0  0  0  0  0  0  0  0  0  0  0
    2.1458    0.2019   -1.4827 H   0  0  0  0  0  0  0  0  0  0  0  0
    1.0915    2.2216   -0.8220 H   0  0  0  0  0  0  0  0  0  0  0  0
   -0.1382    1.2292   -1.5965 H   0  0  0  0  0  0  0  0  0  0  0  0
    0.2286    1.3347    1.4528 H   0  0  0  0  0  0  0  0  0  0  0  0
   -0.6645    2.5658    0.5986 H   0  0  0  0  0  0  0  0  0  0  0  0
   -1.9883    0.6685    1.6478 H   0  0  0  0  0  0  0  0  0  0  0  0
   -2.4259    1.1810    0.0361 H   0  0  0  0  0  0  0  0  0  0  0  0
   -2.3841   -1.3225    0.5637 H   0  0  0  0  0  0  0  0  0  0  0  0
   -1.7400   -0.7900   -0.9709 H   0  0  0  0  0  0  0  0  0  0  0  0
   -0.4605   -2.5675    0.4359 H   0  0  0  0  0  0  0  0  0  0  0  0
    0.1148   -1.2386    1.4295 H   0  0  0  0  0  0  0  0  0  0  0  0
    1.6143   -1.9994   -0.4777 H   0  0  0  0  0  0  0  0  0  0  0  0
    0.4059   -1.4451   -1.6286 H   0  0  0  0  0  0  0  0  0  0  0  0
  1  2  1  0
  2  3  1  0
  3  4  1  0
  4  5  1  0
  5  6  1  0
  6  7  1  0
  7  8  1  0
  8  2  1  0
  1  9  1  0
  2 10  1  0
  3 11  1  0
  3 12  1  0
  4 13  1  0
  4 14  1  0
  5 15  1  0
  5 16  1  0
  6 17  1  0
  6 18  1  0
  7 19  1  0
  7 20  1  0
  8 21  1  0
  8 22  1  0
M  END
>  <Energy>  (10) 
12.41740294025328

>  <Real charge>  (10) 
0

>  <Mult>  (10) 
1

$$$$
