mol_934 499
     RDKit          3D

 32 32  0  0  0  0  0  0  0  0999 V2000
   -3.8847    2.4842    0.5427 C   0  0  0  0  0  0  0  0  0  0  0  0
   -2.6385    2.2476   -0.2856 C   0  0  0  0  0  0  0  0  0  0  0  0
   -2.4099    0.8505   -0.3665 O   0  0  0  0  0  0  0  0  0  0  0  0
   -0.9786    0.3342   -0.9262 P   0  0  0  0  0  5  0  0  0  0  0  0
   -0.5492    0.8409   -2.7497 S   0  0  0  0  0  0  0  0  0  0  0  0
   -1.0879   -1.2521   -0.6150 O   0  0  0  0  0  0  0  0  0  0  0  0
   -2.0756   -2.0073   -1.2962 C   0  0  0  0  0  0  0  0  0  0  0  0
   -2.1256   -3.3934   -0.6867 C   0  0  0  0  0  0  0  0  0  0  0  0
    0.0160    0.8416    0.2422 O   0  0  0  0  0  0  0  0  0  0  0  0
    1.3281    0.4960    0.3983 C   0  0  0  0  0  0  0  0  0  0  0  0
    2.0252    1.2116    1.3765 C   0  0  0  0  0  0  0  0  0  0  0  0
    3.3730    0.9427    1.6274 C   0  0  0  0  0  0  0  0  0  0  0  0
    4.0214   -0.0556    0.8914 C   0  0  0  0  0  0  0  0  0  0  0  0
    3.3267   -0.7800   -0.0859 C   0  0  0  0  0  0  0  0  0  0  0  0
    1.9766   -0.5017   -0.3283 C   0  0  0  0  0  0  0  0  0  0  0  0
    5.4371   -0.3482    1.1484 N   0  0  0  0  0  4  0  0  0  0  0  0
    6.0182    0.3284    2.0090 O   0  0  0  0  0  1  0  0  0  0  0  0
    5.9669   -1.2554    0.4913 O   0  0  0  0  0  0  0  0  0  0  0  0
   -3.7630    2.0692    1.5487 H   0  0  0  0  0  0  0  0  0  0  0  0
   -4.7479    1.9822    0.0933 H   0  0  0  0  0  0  0  0  0  0  0  0
   -4.1014    3.5529    0.6255 H   0  0  0  0  0  0  0  0  0  0  0  0
   -1.7814    2.7442    0.1794 H   0  0  0  0  0  0  0  0  0  0  0  0
   -2.7792    2.6503   -1.2930 H   0  0  0  0  0  0  0  0  0  0  0  0
   -3.0519   -1.5225   -1.2012 H   0  0  0  0  0  0  0  0  0  0  0  0
   -1.8144   -2.0769   -2.3562 H   0  0  0  0  0  0  0  0  0  0  0  0
   -1.1499   -3.8844   -0.7645 H   0  0  0  0  0  0  0  0  0  0  0  0
   -2.3695   -3.3369    0.3793 H   0  0  0  0  0  0  0  0  0  0  0  0
   -2.8740   -4.0135   -1.1878 H   0  0  0  0  0  0  0  0  0  0  0  0
    1.5174    1.9859    1.9479 H   0  0  0  0  0  0  0  0  0  0  0  0
    3.8952    1.5141    2.3920 H   0  0  0  0  0  0  0  0  0  0  0  0
    3.8166   -1.5612   -0.6645 H   0  0  0  0  0  0  0  0  0  0  0  0
    1.4643   -1.0875   -1.0859 H   0  0  0  0  0  0  0  0  0  0  0  0
  1  2  1  0
  2  3  1  0
  3  4  1  0
  4  5  2  0
  4  6  1  0
  6  7  1  0
  7  8  1  0
  4  9  1  0
  9 10  1  0
 10 11  2  0
 11 12  1  0
 12 13  2  0
 13 14  1  0
 14 15  2  0
 13 16  1  0
 16 17  1  0
 16 18  2  0
 15 10  1  0
  1 19  1  0
  1 20  1  0
  1 21  1  0
  2 22  1  0
  2 23  1  0
  7 24  1  0
  7 25  1  0
  8 26  1  0
  8 27  1  0
  8 28  1  0
 11 29  1  0
 12 30  1  0
 14 31  1  0
 15 32  1  0
M  CHG  2  16   1  17  -1
M  END
>  <Energy>  (1) 
-7.880092879430478

>  <Real charge>  (1) 
0

>  <Mult>  (1) 
1

$$$$
mol_934 380
     RDKit          3D

 32 32  0  0  0  0  0  0  0  0999 V2000
   -2.4815    4.0044   -0.2526 C   0  0  0  0  0  0  0  0  0  0  0  0
   -1.1876    3.3989   -0.7567 C   0  0  0  0  0  0  0  0  0  0  0  0
   -1.4713    2.1213   -1.3028 O   0  0  0  0  0  0  0  0  0  0  0  0
   -0.2370    1.1012   -1.5576 P   0  0  0  0  0  5  0  0  0  0  0  0
    1.1266    1.7248   -2.7855 S   0  0  0  0  0  0  0  0  0  0  0  0
   -1.0222   -0.2380   -2.0207 O   0  0  0  0  0  0  0  0  0  0  0  0
   -2.1793   -0.6418   -1.3085 C   0  0  0  0  0  0  0  0  0  0  0  0
   -2.4489   -2.1003   -1.6157 C   0  0  0  0  0  0  0  0  0  0  0  0
    0.2173    0.7576   -0.0446 O   0  0  0  0  0  0  0  0  0  0  0  0
    1.0971   -0.2160    0.3362 C   0  0  0  0  0  0  0  0  0  0  0  0
    1.6074   -1.1979   -0.5122 C   0  0  0  0  0  0  0  0  0  0  0  0
    2.4978   -2.1577   -0.0174 C   0  0  0  0  0  0  0  0  0  0  0  0
    2.8704   -2.1299    1.3326 C   0  0  0  0  0  0  0  0  0  0  0  0
    2.3560   -1.1495    2.1891 C   0  0  0  0  0  0  0  0  0  0  0  0
    1.4679   -0.1967    1.6840 C   0  0  0  0  0  0  0  0  0  0  0  0
    3.8020   -3.1380    1.8542 N   0  0  0  0  0  4  0  0  0  0  0  0
    4.2096   -4.0066    1.0702 O   0  0  0  0  0  1  0  0  0  0  0  0
    4.1217   -3.0628    3.0491 O   0  0  0  0  0  0  0  0  0  0  0  0
   -2.3085    4.9968    0.1729 H   0  0  0  0  0  0  0  0  0  0  0  0
   -2.9331    3.3651    0.5132 H   0  0  0  0  0  0  0  0  0  0  0  0
   -3.2099    4.0904   -1.0657 H   0  0  0  0  0  0  0  0  0  0  0  0
   -0.7558    4.0357   -1.5344 H   0  0  0  0  0  0  0  0  0  0  0  0
   -0.4723    3.3082    0.0668 H   0  0  0  0  0  0  0  0  0  0  0  0
   -3.0263   -0.0280   -1.6296 H   0  0  0  0  0  0  0  0  0  0  0  0
   -2.0350   -0.5088   -0.2321 H   0  0  0  0  0  0  0  0  0  0  0  0
   -2.5874   -2.2493   -2.6917 H   0  0  0  0  0  0  0  0  0  0  0  0
   -1.5978   -2.7205   -1.3153 H   0  0  0  0  0  0  0  0  0  0  0  0
   -3.3430   -2.4508   -1.0927 H   0  0  0  0  0  0  0  0  0  0  0  0
    1.3344   -1.2515   -1.5627 H   0  0  0  0  0  0  0  0  0  0  0  0
    2.8887   -2.9142   -0.6959 H   0  0  0  0  0  0  0  0  0  0  0  0
    2.6332   -1.1128    3.2407 H   0  0  0  0  0  0  0  0  0  0  0  0
    1.0667    0.5667    2.3475 H   0  0  0  0  0  0  0  0  0  0  0  0
  1  2  1  0
  2  3  1  0
  3  4  1  0
  4  5  2  0
  4  6  1  0
  6  7  1  0
  7  8  1  0
  4  9  1  0
  9 10  1  0
 10 11  2  0
 11 12  1  0
 12 13  2  0
 13 14  1  0
 14 15  2  0
 13 16  1  0
 16 17  1  0
 16 18  2  0
 15 10  1  0
  1 19  1  0
  1 20  1  0
  1 21  1  0
  2 22  1  0
  2 23  1  0
  7 24  1  0
  7 25  1  0
  8 26  1  0
  8 27  1  0
  8 28  1  0
 11 29  1  0
 12 30  1  0
 14 31  1  0
 15 32  1  0
M  CHG  2  16   1  17  -1
M  END
>  <Energy>  (2) 
-7.423658092126841

>  <Real charge>  (2) 
0

>  <Mult>  (2) 
1

$$$$
mol_934 340
     RDKit          3D

 32 32  0  0  0  0  0  0  0  0999 V2000
   -2.2103   -2.5881   -0.7852 C   0  0  0  0  0  0  0  0  0  0  0  0
   -1.7338   -2.2591    0.6146 C   0  0  0  0  0  0  0  0  0  0  0  0
   -1.6488   -0.8486    0.7414 O   0  0  0  0  0  0  0  0  0  0  0  0
   -0.7303   -0.2365    1.9280 P   0  0  0  0  0  5  0  0  0  0  0  0
   -1.2027   -0.7585    3.7340 S   0  0  0  0  0  0  0  0  0  0  0  0
   -0.7949    1.3509    1.6135 O   0  0  0  0  0  0  0  0  0  0  0  0
   -2.0377    2.0178    1.7568 C   0  0  0  0  0  0  0  0  0  0  0  0
   -1.9529    3.3499    1.0404 C   0  0  0  0  0  0  0  0  0  0  0  0
    0.7709   -0.6259    1.4764 O   0  0  0  0  0  0  0  0  0  0  0  0
    1.3871   -0.3679    0.2853 C   0  0  0  0  0  0  0  0  0  0  0  0
    0.7963    0.2834   -0.7960 C   0  0  0  0  0  0  0  0  0  0  0  0
    1.5228    0.4894   -1.9744 C   0  0  0  0  0  0  0  0  0  0  0  0
    2.8461    0.0385   -2.0631 C   0  0  0  0  0  0  0  0  0  0  0  0
    3.4446   -0.6163   -0.9811 C   0  0  0  0  0  0  0  0  0  0  0  0
    2.7085   -0.8159    0.1896 C   0  0  0  0  0  0  0  0  0  0  0  0
    3.6087    0.2532   -3.2992 N   0  0  0  0  0  4  0  0  0  0  0  0
    3.0382    0.8320   -4.2347 O   0  0  0  0  0  1  0  0  0  0  0  0
    4.7766   -0.1595   -3.3349 O   0  0  0  0  0  0  0  0  0  0  0  0
   -3.1826   -2.1240   -0.9811 H   0  0  0  0  0  0  0  0  0  0  0  0
   -2.3006   -3.6691   -0.9229 H   0  0  0  0  0  0  0  0  0  0  0  0
   -1.5132   -2.1939   -1.5319 H   0  0  0  0  0  0  0  0  0  0  0  0
   -2.4460   -2.6412    1.3521 H   0  0  0  0  0  0  0  0  0  0  0  0
   -0.7568   -2.7187    0.7938 H   0  0  0  0  0  0  0  0  0  0  0  0
   -2.2404    2.1776    2.8200 H   0  0  0  0  0  0  0  0  0  0  0  0
   -2.8438    1.4146    1.3277 H   0  0  0  0  0  0  0  0  0  0  0  0
   -1.7305    3.2022   -0.0217 H   0  0  0  0  0  0  0  0  0  0  0  0
   -2.8920    3.9027    1.1311 H   0  0  0  0  0  0  0  0  0  0  0  0
   -1.1423    3.9594    1.4534 H   0  0  0  0  0  0  0  0  0  0  0  0
   -0.2265    0.6460   -0.7580 H   0  0  0  0  0  0  0  0  0  0  0  0
    1.0438    1.0016   -2.8070 H   0  0  0  0  0  0  0  0  0  0  0  0
    4.4715   -0.9727   -1.0299 H   0  0  0  0  0  0  0  0  0  0  0  0
    3.1713   -1.3231    1.0343 H   0  0  0  0  0  0  0  0  0  0  0  0
  1  2  1  0
  2  3  1  0
  3  4  1  0
  4  5  2  0
  4  6  1  0
  6  7  1  0
  7  8  1  0
  4  9  1  0
  9 10  1  0
 10 11  2  0
 11 12  1  0
 12 13  2  0
 13 14  1  0
 14 15  2  0
 13 16  1  0
 16 17  1  0
 16 18  2  0
 15 10  1  0
  1 19  1  0
  1 20  1  0
  1 21  1  0
  2 22  1  0
  2 23  1  0
  7 24  1  0
  7 25  1  0
  8 26  1  0
  8 27  1  0
  8 28  1  0
 11 29  1  0
 12 30  1  0
 14 31  1  0
 15 32  1  0
M  CHG  2  16   1  17  -1
M  END
>  <Energy>  (3) 
-7.371826820730882

>  <Real charge>  (3) 
0

>  <Mult>  (3) 
1

$$$$
mol_934 327
     RDKit          3D

 32 32  0  0  0  0  0  0  0  0999 V2000
   -1.7999    3.2045    1.1537 C   0  0  0  0  0  0  0  0  0  0  0  0
   -2.0406    2.5180   -0.1750 C   0  0  0  0  0  0  0  0  0  0  0  0
   -2.1226    1.1199    0.0481 O   0  0  0  0  0  0  0  0  0  0  0  0
   -1.8780    0.1212   -1.2037 P   0  0  0  0  0  5  0  0  0  0  0  0
   -3.0672    0.3575   -2.7166 S   0  0  0  0  0  0  0  0  0  0  0  0
   -1.9478   -1.3216   -0.4706 O   0  0  0  0  0  0  0  0  0  0  0  0
   -1.6824   -2.4845   -1.2378 C   0  0  0  0  0  0  0  0  0  0  0  0
   -1.3119   -3.6100   -0.2940 C   0  0  0  0  0  0  0  0  0  0  0  0
   -0.3037    0.3015   -1.5216 O   0  0  0  0  0  0  0  0  0  0  0  0
    0.7476    0.1929   -0.6562 C   0  0  0  0  0  0  0  0  0  0  0  0
    0.6374   -0.1034    0.7014 C   0  0  0  0  0  0  0  0  0  0  0  0
    1.7855   -0.1902    1.4970 C   0  0  0  0  0  0  0  0  0  0  0  0
    3.0459    0.0218    0.9240 C   0  0  0  0  0  0  0  0  0  0  0  0
    3.1627    0.3196   -0.4384 C   0  0  0  0  0  0  0  0  0  0  0  0
    2.0090    0.4035   -1.2219 C   0  0  0  0  0  0  0  0  0  0  0  0
    4.2514   -0.0689    1.7573 N   0  0  0  0  0  4  0  0  0  0  0  0
    5.3459    0.1258    1.2099 O   0  0  0  0  0  1  0  0  0  0  0  0
    4.1026   -0.3347    2.9584 O   0  0  0  0  0  0  0  0  0  0  0  0
   -2.6048    2.9735    1.8592 H   0  0  0  0  0  0  0  0  0  0  0  0
   -0.8680    2.8507    1.6070 H   0  0  0  0  0  0  0  0  0  0  0  0
   -1.7411    4.2892    1.0277 H   0  0  0  0  0  0  0  0  0  0  0  0
   -1.2239    2.7474   -0.8667 H   0  0  0  0  0  0  0  0  0  0  0  0
   -2.9821    2.8657   -0.6106 H   0  0  0  0  0  0  0  0  0  0  0  0
   -2.5799   -2.7510   -1.8039 H   0  0  0  0  0  0  0  0  0  0  0  0
   -0.8624   -2.3008   -1.9391 H   0  0  0  0  0  0  0  0  0  0  0  0
   -2.1200   -3.7963    0.4210 H   0  0  0  0  0  0  0  0  0  0  0  0
   -0.4242   -3.3463    0.2905 H   0  0  0  0  0  0  0  0  0  0  0  0
   -1.1094   -4.5318   -0.8463 H   0  0  0  0  0  0  0  0  0  0  0  0
   -0.3253   -0.2731    1.1760 H   0  0  0  0  0  0  0  0  0  0  0  0
    1.6776   -0.4227    2.5551 H   0  0  0  0  0  0  0  0  0  0  0  0
    4.1328    0.4875   -0.9018 H   0  0  0  0  0  0  0  0  0  0  0  0
    2.0967    0.6349   -2.2820 H   0  0  0  0  0  0  0  0  0  0  0  0
  1  2  1  0
  2  3  1  0
  3  4  1  0
  4  5  2  0
  4  6  1  0
  6  7  1  0
  7  8  1  0
  4  9  1  0
  9 10  1  0
 10 11  2  0
 11 12  1  0
 12 13  2  0
 13 14  1  0
 14 15  2  0
 13 16  1  0
 16 17  1  0
 16 18  2  0
 15 10  1  0
  1 19  1  0
  1 20  1  0
  1 21  1  0
  2 22  1  0
  2 23  1  0
  7 24  1  0
  7 25  1  0
  8 26  1  0
  8 27  1  0
  8 28  1  0
 11 29  1  0
 12 30  1  0
 14 31  1  0
 15 32  1  0
M  CHG  2  16   1  17  -1
M  END
>  <Energy>  (4) 
-7.320330878800615

>  <Real charge>  (4) 
0

>  <Mult>  (4) 
1

$$$$
mol_934 488
     RDKit          3D

 32 32  0  0  0  0  0  0  0  0999 V2000
   -4.1296   -1.6731    0.2711 C   0  0  0  0  0  0  0  0  0  0  0  0
   -2.6477   -1.3592    0.2707 C   0  0  0  0  0  0  0  0  0  0  0  0
   -2.2361   -1.1285   -1.0662 O   0  0  0  0  0  0  0  0  0  0  0  0
   -0.8130   -0.4020   -1.3395 P   0  0  0  0  0  5  0  0  0  0  0  0
   -0.2724   -0.3802   -3.2003 S   0  0  0  0  0  0  0  0  0  0  0  0
   -1.0374    1.0335   -0.6211 O   0  0  0  0  0  0  0  0  0  0  0  0
   -1.9658    1.9372   -1.1995 C   0  0  0  0  0  0  0  0  0  0  0  0
   -2.3164    2.9900   -0.1685 C   0  0  0  0  0  0  0  0  0  0  0  0
    0.1564   -1.1719   -0.3006 O   0  0  0  0  0  0  0  0  0  0  0  0
    1.4359   -0.8228    0.0259 C   0  0  0  0  0  0  0  0  0  0  0  0
    2.0527    0.3692   -0.3516 C   0  0  0  0  0  0  0  0  0  0  0  0
    3.3697    0.6320    0.0426 C   0  0  0  0  0  0  0  0  0  0  0  0
    4.0631   -0.3049    0.8198 C   0  0  0  0  0  0  0  0  0  0  0  0
    3.4463   -1.5007    1.2050 C   0  0  0  0  0  0  0  0  0  0  0  0
    2.1314   -1.7520    0.8055 C   0  0  0  0  0  0  0  0  0  0  0  0
    5.4436   -0.0288    1.2370 N   0  0  0  0  0  4  0  0  0  0  0  0
    5.9445    1.0512    0.8933 O   0  0  0  0  0  1  0  0  0  0  0  0
    6.0247   -0.8906    1.9118 O   0  0  0  0  0  0  0  0  0  0  0  0
   -4.3390   -2.5491   -0.3517 H   0  0  0  0  0  0  0  0  0  0  0  0
   -4.6996   -0.8386   -0.1507 H   0  0  0  0  0  0  0  0  0  0  0  0
   -4.4872   -1.8677    1.2860 H   0  0  0  0  0  0  0  0  0  0  0  0
   -2.0856   -2.2060    0.6760 H   0  0  0  0  0  0  0  0  0  0  0  0
   -2.4541   -0.4775    0.8889 H   0  0  0  0  0  0  0  0  0  0  0  0
   -1.5094    2.4087   -2.0748 H   0  0  0  0  0  0  0  0  0  0  0  0
   -2.8700    1.4054   -1.5119 H   0  0  0  0  0  0  0  0  0  0  0  0
   -2.7565    2.5263    0.7206 H   0  0  0  0  0  0  0  0  0  0  0  0
   -3.0261    3.7151   -0.5764 H   0  0  0  0  0  0  0  0  0  0  0  0
   -1.4177    3.5217    0.1614 H   0  0  0  0  0  0  0  0  0  0  0  0
    1.5412    1.1186   -0.9486 H   0  0  0  0  0  0  0  0  0  0  0  0
    3.8360    1.5667   -0.2641 H   0  0  0  0  0  0  0  0  0  0  0  0
    3.9687   -2.2402    1.8084 H   0  0  0  0  0  0  0  0  0  0  0  0
    1.6494   -2.6817    1.1013 H   0  0  0  0  0  0  0  0  0  0  0  0
  1  2  1  0
  2  3  1  0
  3  4  1  0
  4  5  2  0
  4  6  1  0
  6  7  1  0
  7  8  1  0
  4  9  1  0
  9 10  1  0
 10 11  2  0
 11 12  1  0
 12 13  2  0
 13 14  1  0
 14 15  2  0
 13 16  1  0
 16 17  1  0
 16 18  2  0
 15 10  1  0
  1 19  1  0
  1 20  1  0
  1 21  1  0
  2 22  1  0
  2 23  1  0
  7 24  1  0
  7 25  1  0
  8 26  1  0
  8 27  1  0
  8 28  1  0
 11 29  1  0
 12 30  1  0
 14 31  1  0
 15 32  1  0
M  CHG  2  16   1  17  -1
M  END
>  <Energy>  (5) 
-7.2309629265317525

>  <Real charge>  (5) 
0

>  <Mult>  (5) 
1

$$$$
mol_934 506
     RDKit          3D

 32 32  0  0  0  0  0  0  0  0999 V2000
   -4.2761    2.0555    1.2859 C   0  0  0  0  0  0  0  0  0  0  0  0
   -3.3474    2.0173    0.0896 C   0  0  0  0  0  0  0  0  0  0  0  0
   -2.0312    1.7520    0.5484 O   0  0  0  0  0  0  0  0  0  0  0  0
   -0.9331    1.2138   -0.5163 P   0  0  0  0  0  5  0  0  0  0  0  0
   -0.6996    2.2959   -2.1086 S   0  0  0  0  0  0  0  0  0  0  0  0
   -1.4295   -0.3086   -0.7662 O   0  0  0  0  0  0  0  0  0  0  0  0
   -1.7240   -1.1384    0.3457 C   0  0  0  0  0  0  0  0  0  0  0  0
   -1.6492   -2.5840   -0.1010 C   0  0  0  0  0  0  0  0  0  0  0  0
    0.3573    1.0340    0.4405 O   0  0  0  0  0  0  0  0  0  0  0  0
    1.5393    0.4350    0.1066 C   0  0  0  0  0  0  0  0  0  0  0  0
    2.5705    0.5809    1.0390 C   0  0  0  0  0  0  0  0  0  0  0  0
    3.8215    0.0030    0.8095 C   0  0  0  0  0  0  0  0  0  0  0  0
    4.0334   -0.7296   -0.3641 C   0  0  0  0  0  0  0  0  0  0  0  0
    3.0018   -0.8840   -1.2994 C   0  0  0  0  0  0  0  0  0  0  0  0
    1.7527   -0.3004   -1.0587 C   0  0  0  0  0  0  0  0  0  0  0  0
    5.3431   -1.3447   -0.6137 N   0  0  0  0  0  4  0  0  0  0  0  0
    6.2340   -1.1646    0.2287 O   0  0  0  0  0  1  0  0  0  0  0  0
    5.4786   -2.0119   -1.6490 O   0  0  0  0  0  0  0  0  0  0  0  0
   -3.9572    2.8241    1.9977 H   0  0  0  0  0  0  0  0  0  0  0  0
   -4.2565    1.0996    1.8197 H   0  0  0  0  0  0  0  0  0  0  0  0
   -5.3035    2.2657    0.9759 H   0  0  0  0  0  0  0  0  0  0  0  0
   -3.6700    1.2393   -0.6096 H   0  0  0  0  0  0  0  0  0  0  0  0
   -3.3604    2.9840   -0.4225 H   0  0  0  0  0  0  0  0  0  0  0  0
   -2.7325   -0.9096    0.7022 H   0  0  0  0  0  0  0  0  0  0  0  0
   -1.0166   -0.9646    1.1615 H   0  0  0  0  0  0  0  0  0  0  0  0
   -1.8838   -3.2606    0.7254 H   0  0  0  0  0  0  0  0  0  0  0  0
   -2.3499   -2.7715   -0.9213 H   0  0  0  0  0  0  0  0  0  0  0  0
   -0.6481   -2.8194   -0.4771 H   0  0  0  0  0  0  0  0  0  0  0  0
    2.4020    1.1526    1.9496 H   0  0  0  0  0  0  0  0  0  0  0  0
    4.6103    0.1336    1.5475 H   0  0  0  0  0  0  0  0  0  0  0  0
    3.1514   -1.4509   -2.2167 H   0  0  0  0  0  0  0  0  0  0  0  0
    0.9727   -0.4432   -1.8014 H   0  0  0  0  0  0  0  0  0  0  0  0
  1  2  1  0
  2  3  1  0
  3  4  1  0
  4  5  2  0
  4  6  1  0
  6  7  1  0
  7  8  1  0
  4  9  1  0
  9 10  1  0
 10 11  2  0
 11 12  1  0
 12 13  2  0
 13 14  1  0
 14 15  2  0
 13 16  1  0
 16 17  1  0
 16 18  2  0
 15 10  1  0
  1 19  1  0
  1 20  1  0
  1 21  1  0
  2 22  1  0
  2 23  1  0
  7 24  1  0
  7 25  1  0
  8 26  1  0
  8 27  1  0
  8 28  1  0
 11 29  1  0
 12 30  1  0
 14 31  1  0
 15 32  1  0
M  CHG  2  16   1  17  -1
M  END
>  <Energy>  (6) 
-7.020673306223983

>  <Real charge>  (6) 
0

>  <Mult>  (6) 
1

$$$$
