mol_490 45
     RDKit          3D

 13 13  0  0  0  0  0  0  0  0999 V2000
   -2.4785    0.5438    0.2715 O   0  0  0  0  0  0  0  0  0  0  0  0
   -1.1521    0.2657    0.1259 C   0  0  0  0  0  0  0  0  0  0  0  0
   -0.6842   -1.0456    0.1046 C   0  0  0  0  0  0  0  0  0  0  0  0
    0.6839   -1.2830   -0.0468 C   0  0  0  0  0  0  0  0  0  0  0  0
    1.5644   -0.2077   -0.1747 C   0  0  0  0  0  0  0  0  0  0  0  0
    3.4156   -0.5321   -0.3795 Br  0  0  0  0  0  0  0  0  0  0  0  0
    1.0902    1.1037   -0.1527 C   0  0  0  0  0  0  0  0  0  0  0  0
   -0.2768    1.3396   -0.0014 C   0  0  0  0  0  0  0  0  0  0  0  0
   -2.9665   -0.2925    0.3483 H   0  0  0  0  0  0  0  0  0  0  0  0
   -1.3620   -1.8876    0.2034 H   0  0  0  0  0  0  0  0  0  0  0  0
    1.0530   -2.3050   -0.0639 H   0  0  0  0  0  0  0  0  0  0  0  0
    1.7714    1.9442   -0.2518 H   0  0  0  0  0  0  0  0  0  0  0  0
   -0.6583    2.3567    0.0173 H   0  0  0  0  0  0  0  0  0  0  0  0
  1  2  1  0
  2  3  2  0
  3  4  1  0
  4  5  2  0
  5  6  1  0
  5  7  1  0
  7  8  2  0
  8  2  1  0
  1  9  1  0
  3 10  1  0
  4 11  1  0
  7 12  1  0
  8 13  1  0
M  END
>  <Energy>  (1) 
4.195228244268506

>  <Real charge>  (1) 
0

>  <Mult>  (1) 
1

$$$$
