mol_259 246
     RDKit          3D

 31 33  0  0  0  0  0  0  0  0999 V2000
    1.7716    3.5701    1.4668 O   0  0  0  0  0  0  0  0  0  0  0  0
    1.3426    2.7257    0.7015 C   0  0  0  0  0  0  0  0  0  0  0  0
    1.1988    2.8620   -0.6315 N   0  0  0  0  0  0  0  0  0  0  0  0
    0.5674    1.7761   -1.1575 C   0  0  0  0  0  0  0  0  0  0  0  0
    0.2436    1.6905   -2.3362 O   0  0  0  0  0  0  0  0  0  0  0  0
    0.3277    0.7248   -0.0265 C   0  0  0  0  0  0  0  0  0  0  0  0
    0.9044    1.4850    1.0728 N   0  0  0  0  0  0  0  0  0  0  0  0
    1.1173   -0.5546   -0.3391 C   0  0  0  0  0  0  0  0  0  0  0  0
    2.2585   -0.9376    0.3896 C   0  0  0  0  0  0  0  0  0  0  0  0
    2.9508   -2.1103    0.0756 C   0  0  0  0  0  0  0  0  0  0  0  0
    2.5191   -2.9198   -0.9715 C   0  0  0  0  0  0  0  0  0  0  0  0
    1.3961   -2.5578   -1.7091 C   0  0  0  0  0  0  0  0  0  0  0  0
    0.7026   -1.3867   -1.3977 C   0  0  0  0  0  0  0  0  0  0  0  0
   -1.1477    0.4551    0.3043 C   0  0  0  0  0  0  0  0  0  0  0  0
   -1.4697   -0.4311    1.3546 C   0  0  0  0  0  0  0  0  0  0  0  0
   -2.7969   -0.6951    1.6988 C   0  0  0  0  0  0  0  0  0  0  0  0
   -3.8313   -0.0781    1.0033 C   0  0  0  0  0  0  0  0  0  0  0  0
   -3.5386    0.8003   -0.0360 C   0  0  0  0  0  0  0  0  0  0  0  0
   -2.2104    1.0663   -0.3830 C   0  0  0  0  0  0  0  0  0  0  0  0
    1.4211    3.6986   -1.1419 H   0  0  0  0  0  0  0  0  0  0  0  0
    0.8100    1.2402    2.0473 H   0  0  0  0  0  0  0  0  0  0  0  0
    2.6329   -0.3293    1.2098 H   0  0  0  0  0  0  0  0  0  0  0  0
    3.8317   -2.3900    0.6484 H   0  0  0  0  0  0  0  0  0  0  0  0
    3.0601   -3.8303   -1.2154 H   0  0  0  0  0  0  0  0  0  0  0  0
    1.0590   -3.1847   -2.5309 H   0  0  0  0  0  0  0  0  0  0  0  0
   -0.1700   -1.1238   -1.9956 H   0  0  0  0  0  0  0  0  0  0  0  0
   -0.6806   -0.9346    1.9112 H   0  0  0  0  0  0  0  0  0  0  0  0
   -3.0219   -1.3853    2.5080 H   0  0  0  0  0  0  0  0  0  0  0  0
   -4.8652   -0.2832    1.2682 H   0  0  0  0  0  0  0  0  0  0  0  0
   -4.3468    1.2809   -0.5826 H   0  0  0  0  0  0  0  0  0  0  0  0
   -2.0360    1.7565   -1.2057 H   0  0  0  0  0  0  0  0  0  0  0  0
  1  2  2  0
  2  3  1  0
  3  4  1  0
  4  5  2  0
  4  6  1  0
  6  7  1  0
  6  8  1  0
  8  9  2  0
  9 10  1  0
 10 11  2  0
 11 12  1  0
 12 13  2  0
  6 14  1  0
 14 15  2  0
 15 16  1  0
 16 17  2  0
 17 18  1  0
 18 19  2  0
  7  2  1  0
 13  8  1  0
 19 14  1  0
  3 20  1  0
  7 21  1  0
  9 22  1  0
 10 23  1  0
 11 24  1  0
 12 25  1  0
 13 26  1  0
 15 27  1  0
 16 28  1  0
 17 29  1  0
 18 30  1  0
 19 31  1  0
M  END
>  <Energy>  (1) 
-0.8252471872244884

>  <Real charge>  (1) 
0

>  <Mult>  (1) 
1

$$$$
