mol_256 446
     RDKit          3D

 24 23  0  0  0  0  0  0  0  0999 V2000
   -1.5813   -0.2456   -1.3991 C   0  0  0  0  0  0  0  0  0  0  0  0
   -1.1951    0.5366   -0.1404 C   0  0  0  0  0  0  0  0  0  0  0  0
   -2.4392    0.7189    0.7388 C   0  0  0  0  0  0  0  0  0  0  0  0
   -0.0478   -0.1206    0.6667 C   0  0  0  0  0  0  0  0  0  0  0  0
   -0.4843   -1.3843    1.1760 O   0  0  0  0  0  0  0  0  0  0  0  0
    1.2854   -0.3143   -0.0974 C   0  0  0  0  0  0  0  0  0  0  0  0
    1.8158    0.9900   -0.6952 C   0  0  0  0  0  0  0  0  0  0  0  0
    2.3531   -0.9205    0.8244 C   0  0  0  0  0  0  0  0  0  0  0  0
   -1.9335   -1.2537   -1.1587 H   0  0  0  0  0  0  0  0  0  0  0  0
   -2.3871    0.2669   -1.9364 H   0  0  0  0  0  0  0  0  0  0  0  0
   -0.7380   -0.3331   -2.0902 H   0  0  0  0  0  0  0  0  0  0  0  0
   -0.8752    1.5386   -0.4505 H   0  0  0  0  0  0  0  0  0  0  0  0
   -2.8615   -0.2428    1.0485 H   0  0  0  0  0  0  0  0  0  0  0  0
   -3.2177    1.2669    0.1969 H   0  0  0  0  0  0  0  0  0  0  0  0
   -2.1972    1.2916    1.6403 H   0  0  0  0  0  0  0  0  0  0  0  0
    0.1480    0.5087    1.5444 H   0  0  0  0  0  0  0  0  0  0  0  0
   -0.5380   -2.0065    0.4313 H   0  0  0  0  0  0  0  0  0  0  0  0
    1.1338   -1.0350   -0.9106 H   0  0  0  0  0  0  0  0  0  0  0  0
    1.1510    1.3722   -1.4754 H   0  0  0  0  0  0  0  0  0  0  0  0
    1.9233    1.7628    0.0733 H   0  0  0  0  0  0  0  0  0  0  0  0
    2.7967    0.8357   -1.1579 H   0  0  0  0  0  0  0  0  0  0  0  0
    2.5532   -0.2678    1.6809 H   0  0  0  0  0  0  0  0  0  0  0  0
    2.0409   -1.8977    1.2066 H   0  0  0  0  0  0  0  0  0  0  0  0
    3.2947   -1.0670    0.2840 H   0  0  0  0  0  0  0  0  0  0  0  0
  1  2  1  0
  2  3  1  0
  2  4  1  0
  4  5  1  0
  4  6  1  0
  6  7  1  0
  6  8  1  0
  1  9  1  0
  1 10  1  0
  1 11  1  0
  2 12  1  0
  3 13  1  0
  3 14  1  0
  3 15  1  0
  4 16  1  0
  5 17  1  0
  6 18  1  0
  7 19  1  0
  7 20  1  0
  7 21  1  0
  8 22  1  0
  8 23  1  0
  8 24  1  0
M  END
>  <Energy>  (1) 
12.236840486465509

>  <Real charge>  (1) 
0

>  <Mult>  (1) 
1

$$$$
mol_256 362
     RDKit          3D

 24 23  0  0  0  0  0  0  0  0999 V2000
   -2.2307   -1.1010    0.9529 C   0  0  0  0  0  0  0  0  0  0  0  0
   -1.1613   -0.6594   -0.0552 C   0  0  0  0  0  0  0  0  0  0  0  0
   -1.8208    0.1929   -1.1437 C   0  0  0  0  0  0  0  0  0  0  0  0
    0.0001    0.0695    0.6656 C   0  0  0  0  0  0  0  0  0  0  0  0
   -0.5349    1.2201    1.3262 O   0  0  0  0  0  0  0  0  0  0  0  0
    1.1738    0.5064   -0.2471 C   0  0  0  0  0  0  0  0  0  0  0  0
    1.7560   -0.6585   -1.0512 C   0  0  0  0  0  0  0  0  0  0  0  0
    2.2974    1.1604    0.5702 C   0  0  0  0  0  0  0  0  0  0  0  0
   -1.7900   -1.7237    1.7386 H   0  0  0  0  0  0  0  0  0  0  0  0
   -3.0071   -1.6936    0.4568 H   0  0  0  0  0  0  0  0  0  0  0  0
   -2.7183   -0.2442    1.4298 H   0  0  0  0  0  0  0  0  0  0  0  0
   -0.7723   -1.5711   -0.5236 H   0  0  0  0  0  0  0  0  0  0  0  0
   -2.2232    1.1266   -0.7371 H   0  0  0  0  0  0  0  0  0  0  0  0
   -1.1118    0.4442   -1.9380 H   0  0  0  0  0  0  0  0  0  0  0  0
   -2.6488   -0.3518   -1.6106 H   0  0  0  0  0  0  0  0  0  0  0  0
    0.3865   -0.5993    1.4460 H   0  0  0  0  0  0  0  0  0  0  0  0
    0.0925    1.4824    2.0205 H   0  0  0  0  0  0  0  0  0  0  0  0
    0.8178    1.2718   -0.9479 H   0  0  0  0  0  0  0  0  0  0  0  0
    1.0327   -1.0486   -1.7731 H   0  0  0  0  0  0  0  0  0  0  0  0
    2.6342   -0.3379   -1.6224 H   0  0  0  0  0  0  0  0  0  0  0  0
    2.0627   -1.4788   -0.3936 H   0  0  0  0  0  0  0  0  0  0  0  0
    2.6740    0.4795    1.3410 H   0  0  0  0  0  0  0  0  0  0  0  0
    1.9538    2.0766    1.0604 H   0  0  0  0  0  0  0  0  0  0  0  0
    3.1377    1.4374   -0.0758 H   0  0  0  0  0  0  0  0  0  0  0  0
  1  2  1  0
  2  3  1  0
  2  4  1  0
  4  5  1  0
  4  6  1  0
  6  7  1  0
  6  8  1  0
  1  9  1  0
  1 10  1  0
  1 11  1  0
  2 12  1  0
  3 13  1  0
  3 14  1  0
  3 15  1  0
  4 16  1  0
  5 17  1  0
  6 18  1  0
  7 19  1  0
  7 20  1  0
  7 21  1  0
  8 22  1  0
  8 23  1  0
  8 24  1  0
M  END
>  <Energy>  (2) 
12.577284890129642

>  <Real charge>  (2) 
0

>  <Mult>  (2) 
1

$$$$
