mol_372 2
     RDKit          3D

 14 14  0  0  0  0  0  0  0  0999 V2000
    2.9355   -1.0604   -0.0498 O   0  0  0  0  0  1  0  0  0  0  0  0
    2.3410    0.0238   -0.1374 N   0  0  0  0  0  4  0  0  0  0  0  0
    2.8991    1.1196   -0.2926 O   0  0  0  0  0  0  0  0  0  0  0  0
    0.8756    0.0089   -0.0514 C   0  0  0  0  0  0  0  0  0  0  0  0
    0.1624    1.2117   -0.1454 C   0  0  0  0  0  0  0  0  0  0  0  0
   -1.2310    1.1912   -0.0630 C   0  0  0  0  0  0  0  0  0  0  0  0
   -1.9042   -0.0193    0.1118 C   0  0  0  0  0  0  0  0  0  0  0  0
   -1.1908   -1.2158    0.2051 C   0  0  0  0  0  0  0  0  0  0  0  0
    0.2028   -1.2080    0.1240 C   0  0  0  0  0  0  0  0  0  0  0  0
    0.6720    2.1633   -0.2817 H   0  0  0  0  0  0  0  0  0  0  0  0
   -1.7937    2.1195   -0.1348 H   0  0  0  0  0  0  0  0  0  0  0  0
   -2.9904   -0.0304    0.1755 H   0  0  0  0  0  0  0  0  0  0  0  0
   -1.7223   -2.1552    0.3412 H   0  0  0  0  0  0  0  0  0  0  0  0
    0.7440   -2.1489    0.1985 H   0  0  0  0  0  0  0  0  0  0  0  0
  1  2  1  0
  2  3  2  0
  2  4  1  0
  4  5  2  0
  5  6  1  0
  6  7  2  0
  7  8  1  0
  8  9  2  0
  9  4  1  0
  5 10  1  0
  6 11  1  0
  7 12  1  0
  8 13  1  0
  9 14  1  0
M  CHG  2   1  -1   2   1
M  END
>  <Energy>  (1) 
49.47193848389306

>  <Real charge>  (1) 
0

>  <Mult>  (1) 
1

$$$$
