mol_720 76
     RDKit          3D

 14 15  0  0  0  0  0  0  0  0999 V2000
    0.8321    2.5044   -0.1595 O   0  0  0  0  0  0  0  0  0  0  0  0
    0.7513    1.2846   -0.0887 C   0  0  0  0  0  0  0  0  0  0  0  0
    1.8602    0.4563   -0.0652 N   0  0  0  0  0  0  0  0  0  0  0  0
    1.7803   -0.9234    0.0147 C   0  0  0  0  0  0  0  0  0  0  0  0
    0.6782   -1.6091    0.0769 N   0  0  0  0  0  0  0  0  0  0  0  0
   -0.4214   -0.8188    0.0553 C   0  0  0  0  0  0  0  0  0  0  0  0
   -1.7165   -1.2414    0.1066 N   0  0  0  0  0  0  0  0  0  0  0  0
   -2.6091   -0.2239    0.0678 N   0  0  0  0  0  0  0  0  0  0  0  0
   -1.8382    0.8707   -0.0105 C   0  0  0  0  0  0  0  0  0  0  0  0
   -0.4768    0.5503   -0.0211 C   0  0  0  0  0  0  0  0  0  0  0  0
    2.7557    0.9182   -0.1103 H   0  0  0  0  0  0  0  0  0  0  0  0
    2.7640   -1.4195    0.0221 H   0  0  0  0  0  0  0  0  0  0  0  0
   -2.0542   -2.1947    0.1678 H   0  0  0  0  0  0  0  0  0  0  0  0
   -2.3058    1.8462   -0.0559 H   0  0  0  0  0  0  0  0  0  0  0  0
  1  2  2  0
  2  3  1  0
  3  4  1  0
  4  5  2  0
  5  6  1  0
  6  7  1  0
  7  8  1  0
  8  9  2  0
  9 10  1  0
 10  2  1  0
 10  6  2  0
  3 11  1  0
  4 12  1  0
  7 13  1  0
  9 14  1  0
M  END
>  <Energy>  (1) 
-35.69451015129842

>  <Real charge>  (1) 
0

>  <Mult>  (1) 
1

$$$$
