mol_507 4
     RDKit          3D

 10  9  0  0  0  0  0  0  0  0999 V2000
   -1.1339    0.3140    0.5815 C   0  0  0  0  0  0  0  0  0  0  0  0
   -0.3436   -0.3168   -0.5524 C   0  0  0  0  0  0  0  0  0  0  0  0
    1.1030   -0.1764   -0.3374 C   0  0  0  0  0  0  0  0  0  0  0  0
    2.2860   -0.0634   -0.1648 C   0  0  0  0  0  0  0  0  0  0  0  0
   -0.9144    1.3837    0.6696 H   0  0  0  0  0  0  0  0  0  0  0  0
   -0.8943   -0.1574    1.5409 H   0  0  0  0  0  0  0  0  0  0  0  0
   -2.2082    0.2005    0.4055 H   0  0  0  0  0  0  0  0  0  0  0  0
   -0.6052   -1.3778   -0.6318 H   0  0  0  0  0  0  0  0  0  0  0  0
   -0.6252    0.1568   -1.4995 H   0  0  0  0  0  0  0  0  0  0  0  0
    3.3358    0.0369   -0.0115 H   0  0  0  0  0  0  0  0  0  0  0  0
  1  2  1  0
  2  3  1  0
  3  4  3  0
  1  5  1  0
  1  6  1  0
  1  7  1  0
  2  8  1  0
  2  9  1  0
  4 10  1  0
M  END
>  <Energy>  (1) 
0.5583477881455123

>  <Real charge>  (1) 
0

>  <Mult>  (1) 
1

$$$$
