mol_364 19
     RDKit          3D

 16 16  0  0  0  0  0  0  0  0999 V2000
    0.6687   -1.1487    0.0928 C   0  0  0  0  0  0  0  0  0  0  0  0
   -0.8146   -1.0255   -0.2453 C   0  0  0  0  0  0  0  0  0  0  0  0
   -1.4297    0.2236    0.3914 C   0  0  0  0  0  0  0  0  0  0  0  0
   -0.5514    1.4355    0.2773 C   0  0  0  0  0  0  0  0  0  0  0  0
    0.7399    1.3739   -0.0802 C   0  0  0  0  0  0  0  0  0  0  0  0
    1.4503    0.0837   -0.3698 C   0  0  0  0  0  0  0  0  0  0  0  0
    0.7835   -1.2696    1.1777 H   0  0  0  0  0  0  0  0  0  0  0  0
    1.0882   -2.0476   -0.3729 H   0  0  0  0  0  0  0  0  0  0  0  0
   -0.9344   -0.9781   -1.3353 H   0  0  0  0  0  0  0  0  0  0  0  0
   -1.3543   -1.9165    0.0948 H   0  0  0  0  0  0  0  0  0  0  0  0
   -2.3956    0.4275   -0.0844 H   0  0  0  0  0  0  0  0  0  0  0  0
   -1.6270    0.0387    1.4540 H   0  0  0  0  0  0  0  0  0  0  0  0
   -1.0035    2.3999    0.4951 H   0  0  0  0  0  0  0  0  0  0  0  0
    1.3183    2.2904   -0.1661 H   0  0  0  0  0  0  0  0  0  0  0  0
    2.4303    0.0892    0.1206 H   0  0  0  0  0  0  0  0  0  0  0  0
    1.6312    0.0238   -1.4496 H   0  0  0  0  0  0  0  0  0  0  0  0
  1  2  1  0
  2  3  1  0
  3  4  1  0
  4  5  2  0
  5  6  1  0
  6  1  1  0
  1  7  1  0
  1  8  1  0
  2  9  1  0
  2 10  1  0
  3 11  1  0
  3 12  1  0
  4 13  1  0
  5 14  1  0
  6 15  1  0
  6 16  1  0
M  END
>  <Energy>  (1) 
2.8914358254186316

>  <Real charge>  (1) 
0

>  <Mult>  (1) 
1

$$$$
