mol_535 172
     RDKit          3D

 19 19  0  0  0  0  0  0  0  0999 V2000
    3.6824   -0.2480   -0.3089 C   0  0  0  0  0  0  0  0  0  0  0  0
    2.2852   -0.5147   -0.1798 O   0  0  0  0  0  0  0  0  0  0  0  0
    1.5052    0.5933   -0.2418 C   0  0  0  0  0  0  0  0  0  0  0  0
    1.9017    1.7384   -0.3926 O   0  0  0  0  0  0  0  0  0  0  0  0
    0.0673    0.2348   -0.1000 C   0  0  0  0  0  0  0  0  0  0  0  0
   -0.8797    1.2698   -0.1422 C   0  0  0  0  0  0  0  0  0  0  0  0
   -2.2427    0.9888   -0.0140 C   0  0  0  0  0  0  0  0  0  0  0  0
   -2.6542   -0.3291    0.1563 C   0  0  0  0  0  0  0  0  0  0  0  0
   -3.9722   -0.6504    0.2855 O   0  0  0  0  0  0  0  0  0  0  0  0
   -1.7290   -1.3662    0.2003 C   0  0  0  0  0  0  0  0  0  0  0  0
   -0.3659   -1.0874    0.0723 C   0  0  0  0  0  0  0  0  0  0  0  0
    4.2160   -1.2004   -0.2457 H   0  0  0  0  0  0  0  0  0  0  0  0
    4.0267    0.3967    0.5059 H   0  0  0  0  0  0  0  0  0  0  0  0
    3.8979    0.2059   -1.2812 H   0  0  0  0  0  0  0  0  0  0  0  0
   -0.5566    2.3009   -0.2755 H   0  0  0  0  0  0  0  0  0  0  0  0
   -2.9585    1.8042   -0.0495 H   0  0  0  0  0  0  0  0  0  0  0  0
   -4.4994    0.1641    0.2366 H   0  0  0  0  0  0  0  0  0  0  0  0
   -2.0676   -2.3902    0.3340 H   0  0  0  0  0  0  0  0  0  0  0  0
    0.3433   -1.9103    0.1091 H   0  0  0  0  0  0  0  0  0  0  0  0
  1  2  1  0
  2  3  1  0
  3  4  2  0
  3  5  1  0
  5  6  2  0
  6  7  1  0
  7  8  2  0
  8  9  1  0
  8 10  1  0
 10 11  2  0
 11  5  1  0
  1 12  1  0
  1 13  1  0
  1 14  1  0
  6 15  1  0
  7 16  1  0
  9 17  1  0
 10 18  1  0
 11 19  1  0
M  END
>  <Energy>  (1) 
18.594225604909248

>  <Real charge>  (1) 
0

>  <Mult>  (1) 
1

$$$$
