mol_61 20
     RDKit          3D

 22 23  0  0  0  0  0  0  0  0999 V2000
    3.7895    1.7537    2.0464 Cl  0  0  0  0  0  0  0  0  0  0  0  0
    2.8612    0.8450    0.9048 C   0  0  0  0  0  0  0  0  0  0  0  0
    3.5654    0.1508   -0.0782 C   0  0  0  0  0  0  0  0  0  0  0  0
    2.8799   -0.6022   -1.0308 C   0  0  0  0  0  0  0  0  0  0  0  0
    3.8307   -1.4314   -2.2136 Cl  0  0  0  0  0  0  0  0  0  0  0  0
    1.4778   -0.6667   -1.0070 C   0  0  0  0  0  0  0  0  0  0  0  0
    0.6291   -1.6093   -2.2001 Cl  0  0  0  0  0  0  0  0  0  0  0  0
    0.7433    0.0314   -0.0163 C   0  0  0  0  0  0  0  0  0  0  0  0
    1.4589    0.7909    0.9426 C   0  0  0  0  0  0  0  0  0  0  0  0
    0.5867    1.6607    2.1734 Cl  0  0  0  0  0  0  0  0  0  0  0  0
   -0.7433   -0.0314    0.0163 C   0  0  0  0  0  0  0  0  0  0  0  0
   -1.4112   -1.0356    0.7606 C   0  0  0  0  0  0  0  0  0  0  0  0
   -0.4797   -2.2095    1.6474 Cl  0  0  0  0  0  0  0  0  0  0  0  0
   -2.8138   -1.0879    0.7862 C   0  0  0  0  0  0  0  0  0  0  0  0
   -3.6852   -2.2882    1.6752 Cl  0  0  0  0  0  0  0  0  0  0  0  0
   -3.5654   -0.1508    0.0782 C   0  0  0  0  0  0  0  0  0  0  0  0
   -2.9273    0.8451   -0.6602 C   0  0  0  0  0  0  0  0  0  0  0  0
   -3.9350    1.9660   -1.5080 Cl  0  0  0  0  0  0  0  0  0  0  0  0
   -1.5255    0.9114   -0.6962 C   0  0  0  0  0  0  0  0  0  0  0  0
   -0.7361    2.1581   -1.6207 Cl  0  0  0  0  0  0  0  0  0  0  0  0
    4.6526    0.1967   -0.1021 H   0  0  0  0  0  0  0  0  0  0  0  0
   -4.6526   -0.1968    0.1021 H   0  0  0  0  0  0  0  0  0  0  0  0
  1  2  1  0
  2  3  2  0
  3  4  1  0
  4  5  1  0
  4  6  2  0
  6  7  1  0
  6  8  1  0
  8  9  2  0
  9 10  1  0
  8 11  1  0
 11 12  2  0
 12 13  1  0
 12 14  1  0
 14 15  1  0
 14 16  2  0
 16 17  1  0
 17 18  1  0
 17 19  2  0
 19 20  1  0
  9  2  1  0
 19 11  1  0
  3 21  1  0
 16 22  1  0
M  END
>  <Energy>  (1) 
52.33439521639655

>  <Real charge>  (1) 
0

>  <Mult>  (1) 
1

$$$$
