mol_606 83
     RDKit          3D

  9  8  0  0  0  0  0  0  0  0999 V2000
    0.9664   -0.3470   -0.2286 C   0  0  0  0  0  0  0  0  0  0  0  0
   -0.1523    0.5878    0.1331 C   0  0  0  0  0  0  0  0  0  0  0  0
   -0.1741    1.7678   -0.1953 O   0  0  0  0  0  0  0  0  0  0  0  0
   -1.1617    0.0394    0.8644 N   0  0  0  0  0  0  0  0  0  0  0  0
    1.9099    0.0657    0.1386 H   0  0  0  0  0  0  0  0  0  0  0  0
    1.0064   -0.4532   -1.3159 H   0  0  0  0  0  0  0  0  0  0  0  0
    0.8239   -1.3358    0.2160 H   0  0  0  0  0  0  0  0  0  0  0  0
   -1.9571    0.6322    1.0645 H   0  0  0  0  0  0  0  0  0  0  0  0
   -1.2614   -0.9568    0.9969 H   0  0  0  0  0  0  0  0  0  0  0  0
  1  2  1  0
  2  3  2  0
  2  4  1  0
  1  5  1  0
  1  6  1  0
  1  7  1  0
  4  8  1  0
  4  9  1  0
M  END
>  <Energy>  (1) 
-28.89215833826934

>  <Real charge>  (1) 
0

>  <Mult>  (1) 
1

$$$$
