mol_954 11
     RDKit          3D

  4  3  0  0  0  0  0  0  0  0999 V2000
    0.5763   -0.0560    0.2533 C   0  0  0  0  0  0  0  0  0  0  0  0
   -0.5763    0.0560   -0.0625 C   0  0  0  0  0  0  0  0  0  0  0  0
    1.5997   -0.1553    0.5338 H   0  0  0  0  0  0  0  0  0  0  0  0
   -1.5997    0.1553   -0.3429 H   0  0  0  0  0  0  0  0  0  0  0  0
  1  2  3  0
  1  3  1  0
  2  4  1  0
M  END
>  <Energy>  (1) 
2.292332810395185

>  <Real charge>  (1) 
0

>  <Mult>  (1) 
1

$$$$
