mol_756 4
     RDKit          3D

 34 38  0  0  0  0  0  0  0  0999 V2000
   -3.5408    1.6961   -0.1134 C   0  0  0  0  0  0  0  0  0  0  0  0
   -2.0989    2.2391   -0.2854 C   0  0  0  0  0  0  0  0  0  0  0  0
   -1.2256    1.0227   -0.1163 C   0  0  0  0  0  0  0  0  0  0  0  0
   -1.9969   -0.0846    0.1201 C   0  0  0  0  0  0  0  0  0  0  0  0
   -3.3310    0.2340    0.1341 C   0  0  0  0  0  0  0  0  0  0  0  0
   -4.2673   -0.7613    0.3594 C   0  0  0  0  0  0  0  0  0  0  0  0
   -3.8166   -2.0737    0.5677 C   0  0  0  0  0  0  0  0  0  0  0  0
   -2.4420   -2.3791    0.5493 C   0  0  0  0  0  0  0  0  0  0  0  0
   -1.4943   -1.3630    0.3197 C   0  0  0  0  0  0  0  0  0  0  0  0
   -0.0923   -1.4926    0.2688 C   0  0  0  0  0  0  0  0  0  0  0  0
    0.7739   -0.3789    0.0263 C   0  0  0  0  0  0  0  0  0  0  0  0
    0.1681    0.9024   -0.1684 C   0  0  0  0  0  0  0  0  0  0  0  0
    0.9709    2.0231   -0.4089 C   0  0  0  0  0  0  0  0  0  0  0  0
    2.3567    1.9115   -0.4621 C   0  0  0  0  0  0  0  0  0  0  0  0
    2.9851    0.6783   -0.2772 C   0  0  0  0  0  0  0  0  0  0  0  0
    4.3875    0.6066   -0.3384 C   0  0  0  0  0  0  0  0  0  0  0  0
    5.0547   -0.6018   -0.1598 C   0  0  0  0  0  0  0  0  0  0  0  0
    4.3248   -1.7545    0.0825 C   0  0  0  0  0  0  0  0  0  0  0  0
    2.9290   -1.6957    0.1456 C   0  0  0  0  0  0  0  0  0  0  0  0
    2.2102   -0.4852   -0.0306 C   0  0  0  0  0  0  0  0  0  0  0  0
   -4.0380    2.1735    0.7372 H   0  0  0  0  0  0  0  0  0  0  0  0
   -4.1306    1.8626   -1.0207 H   0  0  0  0  0  0  0  0  0  0  0  0
   -1.8782    2.9916    0.4790 H   0  0  0  0  0  0  0  0  0  0  0  0
   -1.9708    2.6807   -1.2793 H   0  0  0  0  0  0  0  0  0  0  0  0
   -5.3291   -0.5364    0.3755 H   0  0  0  0  0  0  0  0  0  0  0  0
   -4.5386   -2.8673    0.7461 H   0  0  0  0  0  0  0  0  0  0  0  0
   -2.1184   -3.4033    0.7134 H   0  0  0  0  0  0  0  0  0  0  0  0
    0.3182   -2.4857    0.4228 H   0  0  0  0  0  0  0  0  0  0  0  0
    0.5273    3.0044   -0.5591 H   0  0  0  0  0  0  0  0  0  0  0  0
    2.9434    2.8081   -0.6516 H   0  0  0  0  0  0  0  0  0  0  0  0
    4.9765    1.5018   -0.5277 H   0  0  0  0  0  0  0  0  0  0  0  0
    6.1393   -0.6398   -0.2103 H   0  0  0  0  0  0  0  0  0  0  0  0
    4.8346   -2.7040    0.2235 H   0  0  0  0  0  0  0  0  0  0  0  0
    2.4092   -2.6296    0.3381 H   0  0  0  0  0  0  0  0  0  0  0  0
  1  2  1  0
  2  3  1  0
  3  4  2  0
  4  5  1  0
  5  6  2  0
  6  7  1  0
  7  8  2  0
  8  9  1  0
  9 10  2  0
 10 11  1  0
 11 12  2  0
 12 13  1  0
 13 14  2  0
 14 15  1  0
 15 16  2  0
 16 17  1  0
 17 18  2  0
 18 19  1  0
 19 20  2  0
  5  1  1  0
 12  3  1  0
  9  4  1  0
 20 11  1  0
 20 15  1  0
  1 21  1  0
  1 22  1  0
  2 23  1  0
  2 24  1  0
  6 25  1  0
  7 26  1  0
  8 27  1  0
 10 28  1  0
 13 29  1  0
 14 30  1  0
 16 31  1  0
 17 32  1  0
 18 33  1  0
 19 34  1  0
M  END
>  <Energy>  (1) 
79.59219043395682

>  <Real charge>  (1) 
0

>  <Mult>  (1) 
1

$$$$
