mol_916 220
     RDKit          3D

 20 20  0  0  0  0  0  0  0  0999 V2000
    3.6841    0.4372    0.0679 C   0  0  0  0  0  0  0  0  0  0  0  0
    2.3718   -0.3052    0.1236 C   0  0  0  0  0  0  0  0  0  0  0  0
    2.3469   -1.5302    0.1537 O   0  0  0  0  0  0  0  0  0  0  0  0
    1.2860    0.5515    0.1058 N   0  0  0  0  0  0  0  0  0  0  0  0
   -0.0809    0.2071    0.1417 C   0  0  0  0  0  0  0  0  0  0  0  0
   -1.0063    1.2594    0.1022 C   0  0  0  0  0  0  0  0  0  0  0  0
   -2.3791    1.0021    0.1347 C   0  0  0  0  0  0  0  0  0  0  0  0
   -2.8305   -0.3081    0.2072 C   0  0  0  0  0  0  0  0  0  0  0  0
   -4.1765   -0.5175    0.2369 O   0  0  0  0  0  0  0  0  0  0  0  0
   -1.9299   -1.3654    0.2480 C   0  0  0  0  0  0  0  0  0  0  0  0
   -0.5549   -1.1053    0.2153 C   0  0  0  0  0  0  0  0  0  0  0  0
    3.6374    1.3594    0.6542 H   0  0  0  0  0  0  0  0  0  0  0  0
    4.4748   -0.1911    0.4881 H   0  0  0  0  0  0  0  0  0  0  0  0
    3.9223    0.6738   -0.9723 H   0  0  0  0  0  0  0  0  0  0  0  0
    1.4890    1.5416    0.0531 H   0  0  0  0  0  0  0  0  0  0  0  0
   -0.6762    2.2929    0.0454 H   0  0  0  0  0  0  0  0  0  0  0  0
   -3.0920    1.8211    0.1036 H   0  0  0  0  0  0  0  0  0  0  0  0
   -4.3384   -1.4742    0.2863 H   0  0  0  0  0  0  0  0  0  0  0  0
   -2.2688   -2.3950    0.3051 H   0  0  0  0  0  0  0  0  0  0  0  0
    0.1210   -1.9540    0.2496 H   0  0  0  0  0  0  0  0  0  0  0  0
  1  2  1  0
  2  3  2  0
  2  4  1  0
  4  5  1  0
  5  6  2  0
  6  7  1  0
  7  8  2  0
  8  9  1  0
  8 10  1  0
 10 11  2  0
 11  5  1  0
  1 12  1  0
  1 13  1  0
  1 14  1  0
  4 15  1  0
  6 16  1  0
  7 17  1  0
  9 18  1  0
 10 19  1  0
 11 20  1  0
M  END
>  <Energy>  (1) 
-12.775974495316671

>  <Real charge>  (1) 
0

>  <Mult>  (1) 
1

$$$$
mol_916 240
     RDKit          3D

 20 20  0  0  0  0  0  0  0  0999 V2000
    3.7101   -0.2369    0.1232 C   0  0  0  0  0  0  0  0  0  0  0  0
    2.3371   -0.0242   -0.4651 C   0  0  0  0  0  0  0  0  0  0  0  0
    2.1982    0.2057   -1.6608 O   0  0  0  0  0  0  0  0  0  0  0  0
    1.3380   -0.1510    0.4833 N   0  0  0  0  0  0  0  0  0  0  0  0
   -0.0527   -0.0204    0.2887 C   0  0  0  0  0  0  0  0  0  0  0  0
   -0.8752   -0.2055    1.4100 C   0  0  0  0  0  0  0  0  0  0  0  0
   -2.2655   -0.0932    1.3060 C   0  0  0  0  0  0  0  0  0  0  0  0
   -2.8343    0.2059    0.0746 C   0  0  0  0  0  0  0  0  0  0  0  0
   -4.1830    0.3256   -0.0770 O   0  0  0  0  0  0  0  0  0  0  0  0
   -2.0358    0.3928   -1.0454 C   0  0  0  0  0  0  0  0  0  0  0  0
   -0.6455    0.2801   -0.9392 C   0  0  0  0  0  0  0  0  0  0  0  0
    4.4565    0.2500   -0.5111 H   0  0  0  0  0  0  0  0  0  0  0  0
    3.7790    0.2004    1.1234 H   0  0  0  0  0  0  0  0  0  0  0  0
    3.9202   -1.3084    0.1742 H   0  0  0  0  0  0  0  0  0  0  0  0
    1.6332   -0.3702    1.4260 H   0  0  0  0  0  0  0  0  0  0  0  0
   -0.4465   -0.4399    2.3807 H   0  0  0  0  0  0  0  0  0  0  0  0
   -2.8791   -0.2414    2.1886 H   0  0  0  0  0  0  0  0  0  0  0  0
   -4.6094    0.1694    0.7811 H   0  0  0  0  0  0  0  0  0  0  0  0
   -2.4887    0.6268   -2.0050 H   0  0  0  0  0  0  0  0  0  0  0  0
   -0.0566    0.4343   -1.8377 H   0  0  0  0  0  0  0  0  0  0  0  0
  1  2  1  0
  2  3  2  0
  2  4  1  0
  4  5  1  0
  5  6  2  0
  6  7  1  0
  7  8  2  0
  8  9  1  0
  8 10  1  0
 10 11  2  0
 11  5  1  0
  1 12  1  0
  1 13  1  0
  1 14  1  0
  4 15  1  0
  6 16  1  0
  7 17  1  0
  9 18  1  0
 10 19  1  0
 11 20  1  0
M  END
>  <Energy>  (2) 
-11.908478484501966

>  <Real charge>  (2) 
0

>  <Mult>  (2) 
1

$$$$
