mol_753 11
     RDKit          3D

 19 20  0  0  0  0  0  0  0  0999 V2000
   -0.2571    2.7305    0.6913 O   0  0  0  0  0  0  0  0  0  0  0  0
    0.3430    1.6116    0.1719 C   0  0  0  0  0  0  0  0  0  0  0  0
    1.6072    1.7198   -0.4087 C   0  0  0  0  0  0  0  0  0  0  0  0
    2.2201    0.5871   -0.9370 C   0  0  0  0  0  0  0  0  0  0  0  0
    1.5710   -0.6475   -0.8844 C   0  0  0  0  0  0  0  0  0  0  0  0
    0.2982   -0.7694   -0.3025 C   0  0  0  0  0  0  0  0  0  0  0  0
   -0.3569   -2.0114   -0.2486 C   0  0  0  0  0  0  0  0  0  0  0  0
   -1.6213   -2.1298    0.3301 C   0  0  0  0  0  0  0  0  0  0  0  0
   -2.2483   -1.0088    0.8627 C   0  0  0  0  0  0  0  0  0  0  0  0
   -1.6105    0.2320    0.8168 C   0  0  0  0  0  0  0  0  0  0  0  0
   -0.3332    0.3759    0.2373 C   0  0  0  0  0  0  0  0  0  0  0  0
    0.3356    3.4887    0.5664 H   0  0  0  0  0  0  0  0  0  0  0  0
    2.1252    2.6723   -0.4575 H   0  0  0  0  0  0  0  0  0  0  0  0
    3.2047    0.6619   -1.3913 H   0  0  0  0  0  0  0  0  0  0  0  0
    2.0681   -1.5200   -1.3033 H   0  0  0  0  0  0  0  0  0  0  0  0
    0.1162   -2.9004   -0.6595 H   0  0  0  0  0  0  0  0  0  0  0  0
   -2.1151   -3.0972    0.3642 H   0  0  0  0  0  0  0  0  0  0  0  0
   -3.2327   -1.0952    1.3144 H   0  0  0  0  0  0  0  0  0  0  0  0
   -2.1142    1.1000    1.2378 H   0  0  0  0  0  0  0  0  0  0  0  0
  1  2  1  0
  2  3  2  0
  3  4  1  0
  4  5  2  0
  5  6  1  0
  6  7  2  0
  7  8  1  0
  8  9  2  0
  9 10  1  0
 10 11  2  0
 11  2  1  0
 11  6  1  0
  1 12  1  0
  3 13  1  0
  4 14  1  0
  5 15  1  0
  7 16  1  0
  8 17  1  0
  9 18  1  0
 10 19  1  0
M  END
>  <Energy>  (1) 
30.428268983361225

>  <Real charge>  (1) 
0

>  <Mult>  (1) 
1

$$$$
mol_753 117
     RDKit          3D

 19 20  0  0  0  0  0  0  0  0999 V2000
    1.9567    2.1587    0.2060 O   0  0  0  0  0  0  0  0  0  0  0  0
    1.4824    0.8754    0.1233 C   0  0  0  0  0  0  0  0  0  0  0  0
    2.4685   -0.1112    0.1377 C   0  0  0  0  0  0  0  0  0  0  0  0
    2.1115   -1.4510    0.0593 C   0  0  0  0  0  0  0  0  0  0  0  0
    0.7662   -1.8028   -0.0335 C   0  0  0  0  0  0  0  0  0  0  0  0
   -0.2400   -0.8223   -0.0493 C   0  0  0  0  0  0  0  0  0  0  0  0
   -1.5889   -1.2031   -0.1436 C   0  0  0  0  0  0  0  0  0  0  0  0
   -2.6055   -0.2501   -0.1612 C   0  0  0  0  0  0  0  0  0  0  0  0
   -2.2863    1.0987   -0.0846 C   0  0  0  0  0  0  0  0  0  0  0  0
   -0.9497    1.4965    0.0097 C   0  0  0  0  0  0  0  0  0  0  0  0
    0.1057    0.5510    0.0299 C   0  0  0  0  0  0  0  0  0  0  0  0
    1.2142    2.7782    0.1901 H   0  0  0  0  0  0  0  0  0  0  0  0
    3.5154    0.1709    0.2102 H   0  0  0  0  0  0  0  0  0  0  0  0
    2.8783   -2.2207    0.0704 H   0  0  0  0  0  0  0  0  0  0  0  0
    0.5068   -2.8580   -0.0940 H   0  0  0  0  0  0  0  0  0  0  0  0
   -1.8597   -2.2553   -0.2045 H   0  0  0  0  0  0  0  0  0  0  0  0
   -3.6436   -0.5631   -0.2346 H   0  0  0  0  0  0  0  0  0  0  0  0
   -3.0762    1.8456   -0.0980 H   0  0  0  0  0  0  0  0  0  0  0  0
   -0.7558    2.5627    0.0668 H   0  0  0  0  0  0  0  0  0  0  0  0
  1  2  1  0
  2  3  2  0
  3  4  1  0
  4  5  2  0
  5  6  1  0
  6  7  2  0
  7  8  1  0
  8  9  2  0
  9 10  1  0
 10 11  2  0
 11  2  1  0
 11  6  1  0
  1 12  1  0
  3 13  1  0
  4 14  1  0
  5 15  1  0
  7 16  1  0
  8 17  1  0
  9 18  1  0
 10 19  1  0
M  END
>  <Energy>  (2) 
31.147963729182713

>  <Real charge>  (2) 
0

>  <Mult>  (2) 
1

$$$$
