mol_779 208
     RDKit          3D

 31 33  0  0  0  0  0  0  0  0999 V2000
    0.6536   -3.7687    0.1771 C   0  0  0  0  0  0  0  0  0  0  0  0
    1.1767   -2.4515    0.2790 O   0  0  0  0  0  0  0  0  0  0  0  0
    0.3102   -1.4101   -0.0151 C   0  0  0  0  0  0  0  0  0  0  0  0
   -1.0337   -1.4990   -0.4042 C   0  0  0  0  0  0  0  0  0  0  0  0
   -1.7666   -2.6399   -0.5810 O   0  0  0  0  0  0  0  0  0  0  0  0
   -3.0096   -2.2749   -0.9808 C   0  0  0  0  0  0  0  0  0  0  0  0
   -3.1035   -0.9081   -1.0631 C   0  0  0  0  0  0  0  0  0  0  0  0
   -1.8327   -0.3919   -0.6815 C   0  0  0  0  0  0  0  0  0  0  0  0
   -1.2815    0.8998   -0.5517 C   0  0  0  0  0  0  0  0  0  0  0  0
   -2.0535    1.9874   -0.8812 O   0  0  0  0  0  0  0  0  0  0  0  0
   -2.7720    2.4532    0.2620 C   0  0  0  0  0  0  0  0  0  0  0  0
    0.0726    1.0326   -0.1865 C   0  0  0  0  0  0  0  0  0  0  0  0
    0.7247    2.3568   -0.0586 C   0  0  0  0  0  0  0  0  0  0  0  0
    0.1451    3.4264   -0.1917 O   0  0  0  0  0  0  0  0  0  0  0  0
    2.1585    2.3613    0.2712 C   0  0  0  0  0  0  0  0  0  0  0  0
    2.7902    1.2048    0.4969 C   0  0  0  0  0  0  0  0  0  0  0  0
    4.2435    1.1355    0.8474 C   0  0  0  0  0  0  0  0  0  0  0  0
    2.1761   -0.0295    0.4377 O   0  0  0  0  0  0  0  0  0  0  0  0
    0.8451   -0.1064    0.0768 C   0  0  0  0  0  0  0  0  0  0  0  0
    0.3487   -3.9954   -0.8494 H   0  0  0  0  0  0  0  0  0  0  0  0
   -0.1625   -3.9271    0.8890 H   0  0  0  0  0  0  0  0  0  0  0  0
    1.4564   -4.4646    0.4405 H   0  0  0  0  0  0  0  0  0  0  0  0
   -3.6996   -3.0865   -1.1665 H   0  0  0  0  0  0  0  0  0  0  0  0
   -3.9749   -0.3418   -1.3610 H   0  0  0  0  0  0  0  0  0  0  0  0
   -3.5657    1.7486    0.5317 H   0  0  0  0  0  0  0  0  0  0  0  0
   -3.2397    3.4064   -0.0018 H   0  0  0  0  0  0  0  0  0  0  0  0
   -2.1137    2.6230    1.1211 H   0  0  0  0  0  0  0  0  0  0  0  0
    2.6445    3.3270    0.3273 H   0  0  0  0  0  0  0  0  0  0  0  0
    4.7050    2.1275    0.8913 H   0  0  0  0  0  0  0  0  0  0  0  0
    4.3742    0.6598    1.8247 H   0  0  0  0  0  0  0  0  0  0  0  0
    4.7843    0.5454    0.1005 H   0  0  0  0  0  0  0  0  0  0  0  0
  1  2  1  0
  2  3  1  0
  3  4  2  0
  4  5  1  0
  5  6  1  0
  6  7  2  0
  7  8  1  0
  8  9  2  0
  9 10  1  0
 10 11  1  0
  9 12  1  0
 12 13  1  0
 13 14  2  0
 13 15  1  0
 15 16  2  0
 16 17  1  0
 16 18  1  0
 18 19  1  0
  8  4  1  0
 19  3  1  0
 19 12  2  0
  1 20  1  0
  1 21  1  0
  1 22  1  0
  6 23  1  0
  7 24  1  0
 11 25  1  0
 11 26  1  0
 11 27  1  0
 15 28  1  0
 17 29  1  0
 17 30  1  0
 17 31  1  0
M  END
>  <Energy>  (1) 
61.9513159411024

>  <Real charge>  (1) 
0

>  <Mult>  (1) 
1

$$$$
