mol_952 64
     RDKit          3D

 33 35  0  0  0  0  0  0  0  0999 V2000
    0.5901   -2.8616   -1.7519 C   0  0  0  0  0  0  0  0  0  0  0  0
    1.2403   -2.1410   -0.5710 C   0  0  0  0  0  0  0  0  0  0  0  0
    0.6418   -0.8064   -0.3616 N   0  0  0  0  0  0  0  0  0  0  0  0
   -0.6820   -0.8318    0.1443 C   0  0  0  0  0  0  0  0  0  0  0  0
   -1.1436   -1.9931    0.6828 N   0  0  0  0  0  0  0  0  0  0  0  0
   -2.4042   -2.0372    1.1442 C   0  0  0  0  0  0  0  0  0  0  0  0
   -2.8725   -3.5466    1.8061 Cl  0  0  0  0  0  0  0  0  0  0  0  0
   -3.2799   -0.9794    1.1008 C   0  0  0  0  0  0  0  0  0  0  0  0
   -2.8218    0.2058    0.5385 C   0  0  0  0  0  0  0  0  0  0  0  0
   -1.5054    0.3138    0.0495 C   0  0  0  0  0  0  0  0  0  0  0  0
   -1.0966    1.5332   -0.5840 N   0  0  0  0  0  0  0  0  0  0  0  0
   -2.1264    2.3511   -1.2223 C   0  0  0  0  0  0  0  0  0  0  0  0
    0.1990    2.0646   -0.5954 C   0  0  0  0  0  0  0  0  0  0  0  0
    0.4616    3.1237   -1.1752 O   0  0  0  0  0  0  0  0  0  0  0  0
    1.3008    1.4711    0.1836 C   0  0  0  0  0  0  0  0  0  0  0  0
    2.2082    2.3522    0.7970 C   0  0  0  0  0  0  0  0  0  0  0  0
    3.3213    1.8555    1.4593 C   0  0  0  0  0  0  0  0  0  0  0  0
    3.4997    0.4894    1.4671 C   0  0  0  0  0  0  0  0  0  0  0  0
    2.6510   -0.3782    0.8737 N   0  0  0  0  0  0  0  0  0  0  0  0
    1.5455    0.1032    0.2356 C   0  0  0  0  0  0  0  0  0  0  0  0
    1.1136   -3.8025   -1.9503 H   0  0  0  0  0  0  0  0  0  0  0  0
   -0.4614   -3.1004   -1.5698 H   0  0  0  0  0  0  0  0  0  0  0  0
    0.6408   -2.2468   -2.6570 H   0  0  0  0  0  0  0  0  0  0  0  0
    2.2993   -2.0456   -0.8490 H   0  0  0  0  0  0  0  0  0  0  0  0
    1.2088   -2.7603    0.3350 H   0  0  0  0  0  0  0  0  0  0  0  0
   -4.2886   -1.0647    1.4874 H   0  0  0  0  0  0  0  0  0  0  0  0
   -3.5061    1.0491    0.5128 H   0  0  0  0  0  0  0  0  0  0  0  0
   -2.8819    1.7178   -1.6987 H   0  0  0  0  0  0  0  0  0  0  0  0
   -1.7039    2.9882   -2.0054 H   0  0  0  0  0  0  0  0  0  0  0  0
   -2.5858    2.9966   -0.4671 H   0  0  0  0  0  0  0  0  0  0  0  0
    2.0496    3.4273    0.7413 H   0  0  0  0  0  0  0  0  0  0  0  0
    4.0337    2.5167    1.9390 H   0  0  0  0  0  0  0  0  0  0  0  0
    4.3549    0.0360    1.9603 H   0  0  0  0  0  0  0  0  0  0  0  0
  1  2  1  0
  2  3  1  0
  3  4  1  0
  4  5  2  0
  5  6  1  0
  6  7  1  0
  6  8  2  0
  8  9  1  0
  9 10  2  0
 10 11  1  0
 11 12  1  0
 11 13  1  0
 13 14  2  0
 13 15  1  0
 15 16  2  0
 16 17  1  0
 17 18  2  0
 18 19  1  0
 19 20  2  0
 10  4  1  0
 20  3  1  0
 20 15  1  0
  1 21  1  0
  1 22  1  0
  1 23  1  0
  2 24  1  0
  2 25  1  0
  8 26  1  0
  9 27  1  0
 12 28  1  0
 12 29  1  0
 12 30  1  0
 16 31  1  0
 17 32  1  0
 18 33  1  0
M  END
>  <Energy>  (1) 
40.54027132313889

>  <Real charge>  (1) 
0

>  <Mult>  (1) 
1

$$$$
mol_952 81
     RDKit          3D

 33 35  0  0  0  0  0  0  0  0999 V2000
   -3.1328    0.9725   -1.1650 C   0  0  0  0  0  0  0  0  0  0  0  0
   -2.0692    1.4366   -0.1699 C   0  0  0  0  0  0  0  0  0  0  0  0
   -0.8818    0.5578   -0.2029 N   0  0  0  0  0  0  0  0  0  0  0  0
    0.3078    1.2233    0.1920 C   0  0  0  0  0  0  0  0  0  0  0  0
    0.1937    2.4102    0.8492 N   0  0  0  0  0  0  0  0  0  0  0  0
    1.3126    3.0591    1.2112 C   0  0  0  0  0  0  0  0  0  0  0  0
    1.0487    4.5348    2.0411 Cl  0  0  0  0  0  0  0  0  0  0  0  0
    2.5848    2.6102    0.9504 C   0  0  0  0  0  0  0  0  0  0  0  0
    2.7099    1.4083    0.2640 C   0  0  0  0  0  0  0  0  0  0  0  0
    1.5721    0.6776   -0.1299 C   0  0  0  0  0  0  0  0  0  0  0  0
    1.7461   -0.5203   -0.8984 N   0  0  0  0  0  0  0  0  0  0  0  0
    2.9456   -0.6334   -1.7264 C   0  0  0  0  0  0  0  0  0  0  0  0
    0.9035   -1.6388   -0.8885 C   0  0  0  0  0  0  0  0  0  0  0  0
    1.1252   -2.6263   -1.5973 O   0  0  0  0  0  0  0  0  0  0  0  0
   -0.2211   -1.7677    0.0555 C   0  0  0  0  0  0  0  0  0  0  0  0
   -0.4627   -3.0387    0.6051 C   0  0  0  0  0  0  0  0  0  0  0  0
   -1.5625   -3.2449    1.4248 C   0  0  0  0  0  0  0  0  0  0  0  0
   -2.3966   -2.1721    1.6509 C   0  0  0  0  0  0  0  0  0  0  0  0
   -2.1947   -0.9448    1.1237 N   0  0  0  0  0  0  0  0  0  0  0  0
   -1.1072   -0.7316    0.3291 C   0  0  0  0  0  0  0  0  0  0  0  0
   -3.5556   -0.0011   -0.9021 H   0  0  0  0  0  0  0  0  0  0  0  0
   -3.9562    1.6935   -1.1958 H   0  0  0  0  0  0  0  0  0  0  0  0
   -2.7123    0.8930   -2.1733 H   0  0  0  0  0  0  0  0  0  0  0  0
   -2.4897    1.5330    0.8398 H   0  0  0  0  0  0  0  0  0  0  0  0
   -1.8023    2.4510   -0.4979 H   0  0  0  0  0  0  0  0  0  0  0  0
    3.4573    3.1708    1.2645 H   0  0  0  0  0  0  0  0  0  0  0  0
    3.7136    1.0435    0.0650 H   0  0  0  0  0  0  0  0  0  0  0  0
    3.7685   -1.0085   -1.1098 H   0  0  0  0  0  0  0  0  0  0  0  0
    3.2042    0.3357   -2.1653 H   0  0  0  0  0  0  0  0  0  0  0  0
    2.7957   -1.3303   -2.5568 H   0  0  0  0  0  0  0  0  0  0  0  0
    0.2032   -3.8688    0.3777 H   0  0  0  0  0  0  0  0  0  0  0  0
   -1.7680   -4.2164    1.8591 H   0  0  0  0  0  0  0  0  0  0  0  0
   -3.2797   -2.2673    2.2764 H   0  0  0  0  0  0  0  0  0  0  0  0
  1  2  1  0
  2  3  1  0
  3  4  1  0
  4  5  2  0
  5  6  1  0
  6  7  1  0
  6  8  2  0
  8  9  1  0
  9 10  2  0
 10 11  1  0
 11 12  1  0
 11 13  1  0
 13 14  2  0
 13 15  1  0
 15 16  2  0
 16 17  1  0
 17 18  2  0
 18 19  1  0
 19 20  2  0
 10  4  1  0
 20  3  1  0
 20 15  1  0
  1 21  1  0
  1 22  1  0
  1 23  1  0
  2 24  1  0
  2 25  1  0
  8 26  1  0
  9 27  1  0
 12 28  1  0
 12 29  1  0
 12 30  1  0
 16 31  1  0
 17 32  1  0
 18 33  1  0
M  END
>  <Energy>  (2) 
40.60079272918901

>  <Real charge>  (2) 
0

>  <Mult>  (2) 
1

$$$$
