mol_673 103
     RDKit          3D

 28 29  0  0  0  0  0  0  0  0999 V2000
    1.2570   -3.5081    0.6393 Cl  0  0  0  0  0  0  0  0  0  0  0  0
   -0.1338   -2.3851    0.8273 C   0  0  0  0  0  0  0  0  0  0  0  0
   -1.6302   -3.3592    0.6298 Cl  0  0  0  0  0  0  0  0  0  0  0  0
   -0.0694   -1.2063   -0.1864 C   0  0  0  0  0  0  0  0  0  0  0  0
   -1.2664   -0.2424   -0.1566 C   0  0  0  0  0  0  0  0  0  0  0  0
   -1.6857    0.3517   -1.3622 C   0  0  0  0  0  0  0  0  0  0  0  0
   -2.7551    1.2500   -1.3872 C   0  0  0  0  0  0  0  0  0  0  0  0
   -3.4151    1.5706   -0.2057 C   0  0  0  0  0  0  0  0  0  0  0  0
   -4.7313    2.6778   -0.2321 Cl  0  0  0  0  0  0  0  0  0  0  0  0
   -3.0121    1.0026    0.9996 C   0  0  0  0  0  0  0  0  0  0  0  0
   -1.9410    0.1038    1.0262 C   0  0  0  0  0  0  0  0  0  0  0  0
    1.2421   -0.4139   -0.0752 C   0  0  0  0  0  0  0  0  0  0  0  0
    1.5697    0.2294    1.1374 C   0  0  0  0  0  0  0  0  0  0  0  0
    2.7550    0.9550    1.2761 C   0  0  0  0  0  0  0  0  0  0  0  0
    3.6386    1.0569    0.2081 C   0  0  0  0  0  0  0  0  0  0  0  0
    3.3349    0.4354   -1.0008 C   0  0  0  0  0  0  0  0  0  0  0  0
    2.1480   -0.2926   -1.1465 C   0  0  0  0  0  0  0  0  0  0  0  0
    1.8699   -1.0193   -2.6904 Cl  0  0  0  0  0  0  0  0  0  0  0  0
   -0.1150   -2.0418    1.8652 H   0  0  0  0  0  0  0  0  0  0  0  0
   -0.1181   -1.6915   -1.1689 H   0  0  0  0  0  0  0  0  0  0  0  0
   -1.1789    0.1184   -2.2977 H   0  0  0  0  0  0  0  0  0  0  0  0
   -3.0638    1.6945   -2.3297 H   0  0  0  0  0  0  0  0  0  0  0  0
   -3.5266    1.2558    1.9231 H   0  0  0  0  0  0  0  0  0  0  0  0
   -1.6529   -0.3118    1.9881 H   0  0  0  0  0  0  0  0  0  0  0  0
    0.9012    0.1827    1.9941 H   0  0  0  0  0  0  0  0  0  0  0  0
    2.9862    1.4440    2.2198 H   0  0  0  0  0  0  0  0  0  0  0  0
    4.5617    1.6214    0.3139 H   0  0  0  0  0  0  0  0  0  0  0  0
    4.0309    0.5221   -1.8321 H   0  0  0  0  0  0  0  0  0  0  0  0
  1  2  1  0
  2  3  1  0
  2  4  1  0
  4  5  1  0
  5  6  2  0
  6  7  1  0
  7  8  2  0
  8  9  1  0
  8 10  1  0
 10 11  2  0
  4 12  1  0
 12 13  2  0
 13 14  1  0
 14 15  2  0
 15 16  1  0
 16 17  2  0
 17 18  1  0
 11  5  1  0
 17 12  1  0
  2 19  1  0
  4 20  1  0
  6 21  1  0
  7 22  1  0
 10 23  1  0
 11 24  1  0
 13 25  1  0
 14 26  1  0
 15 27  1  0
 16 28  1  0
M  END
>  <Energy>  (1) 
70.06041529899301

>  <Real charge>  (1) 
0

>  <Mult>  (1) 
1

$$$$
mol_673 144
     RDKit          3D

 28 29  0  0  0  0  0  0  0  0999 V2000
    1.0047   -3.6732   -0.1594 Cl  0  0  0  0  0  0  0  0  0  0  0  0
   -0.2793   -2.4766   -0.5664 C   0  0  0  0  0  0  0  0  0  0  0  0
   -1.8533   -3.2674   -0.1987 Cl  0  0  0  0  0  0  0  0  0  0  0  0
   -0.0924   -1.1507    0.2279 C   0  0  0  0  0  0  0  0  0  0  0  0
    1.2369   -0.4039    0.0289 C   0  0  0  0  0  0  0  0  0  0  0  0
    1.6879    0.4562    1.0501 C   0  0  0  0  0  0  0  0  0  0  0  0
    2.8840    1.1668    0.9208 C   0  0  0  0  0  0  0  0  0  0  0  0
    3.6468    1.0291   -0.2335 C   0  0  0  0  0  0  0  0  0  0  0  0
    5.1191    1.9031   -0.3973 Cl  0  0  0  0  0  0  0  0  0  0  0  0
    3.2219    0.1880   -1.2571 C   0  0  0  0  0  0  0  0  0  0  0  0
    2.0242   -0.5235   -1.1278 C   0  0  0  0  0  0  0  0  0  0  0  0
   -1.2853   -0.1856    0.1238 C   0  0  0  0  0  0  0  0  0  0  0  0
   -1.9747    0.1307    1.3160 C   0  0  0  0  0  0  0  0  0  0  0  0
   -3.0668    1.0004    1.3178 C   0  0  0  0  0  0  0  0  0  0  0  0
   -3.4963    1.5771    0.1294 C   0  0  0  0  0  0  0  0  0  0  0  0
   -2.8325    1.2823   -1.0593 C   0  0  0  0  0  0  0  0  0  0  0  0
   -1.7362    0.4097   -1.0680 C   0  0  0  0  0  0  0  0  0  0  0  0
   -1.0013    0.1228   -2.6026 Cl  0  0  0  0  0  0  0  0  0  0  0  0
   -0.2435   -2.3429   -1.6481 H   0  0  0  0  0  0  0  0  0  0  0  0
   -0.0524   -1.4803    1.2793 H   0  0  0  0  0  0  0  0  0  0  0  0
    1.1055    0.5825    1.9612 H   0  0  0  0  0  0  0  0  0  0  0  0
    3.2106    1.8244    1.7219 H   0  0  0  0  0  0  0  0  0  0  0  0
    3.8155    0.0812   -2.1615 H   0  0  0  0  0  0  0  0  0  0  0  0
    1.7293   -1.1630   -1.9559 H   0  0  0  0  0  0  0  0  0  0  0  0
   -1.6671   -0.3061    2.2653 H   0  0  0  0  0  0  0  0  0  0  0  0
   -3.5821    1.2248    2.2489 H   0  0  0  0  0  0  0  0  0  0  0  0
   -4.3464    2.2546    0.1258 H   0  0  0  0  0  0  0  0  0  0  0  0
   -3.1768    1.7396   -1.9844 H   0  0  0  0  0  0  0  0  0  0  0  0
  1  2  1  0
  2  3  1  0
  2  4  1  0
  4  5  1  0
  5  6  2  0
  6  7  1  0
  7  8  2  0
  8  9  1  0
  8 10  1  0
 10 11  2  0
  4 12  1  0
 12 13  2  0
 13 14  1  0
 14 15  2  0
 15 16  1  0
 16 17  2  0
 17 18  1  0
 11  5  1  0
 17 12  1  0
  2 19  1  0
  4 20  1  0
  6 21  1  0
  7 22  1  0
 10 23  1  0
 11 24  1  0
 13 25  1  0
 14 26  1  0
 15 27  1  0
 16 28  1  0
M  END
>  <Energy>  (2) 
70.13383192217697

>  <Real charge>  (2) 
0

>  <Mult>  (2) 
1

$$$$
mol_673 74
     RDKit          3D

 28 29  0  0  0  0  0  0  0  0999 V2000
    0.0463   -3.1933    0.4583 Cl  0  0  0  0  0  0  0  0  0  0  0  0
   -0.0017   -1.8838    1.6780 C   0  0  0  0  0  0  0  0  0  0  0  0
    1.3144   -2.1275    2.8674 Cl  0  0  0  0  0  0  0  0  0  0  0  0
   -0.0093   -0.4402    1.0910 C   0  0  0  0  0  0  0  0  0  0  0  0
    1.2546    0.1266    0.4200 C   0  0  0  0  0  0  0  0  0  0  0  0
    1.3603    1.5284    0.2899 C   0  0  0  0  0  0  0  0  0  0  0  0
    2.4714    2.1205   -0.3158 C   0  0  0  0  0  0  0  0  0  0  0  0
    3.4978    1.3197   -0.8017 C   0  0  0  0  0  0  0  0  0  0  0  0
    4.8680    2.0412   -1.5498 Cl  0  0  0  0  0  0  0  0  0  0  0  0
    3.4190   -0.0644   -0.6853 C   0  0  0  0  0  0  0  0  0  0  0  0
    2.3049   -0.6574   -0.0792 C   0  0  0  0  0  0  0  0  0  0  0  0
   -1.2800   -0.2073    0.2534 C   0  0  0  0  0  0  0  0  0  0  0  0
   -1.2545   -0.4080   -1.1420 C   0  0  0  0  0  0  0  0  0  0  0  0
   -2.3977   -0.2206   -1.9220 C   0  0  0  0  0  0  0  0  0  0  0  0
   -3.5934    0.1643   -1.3262 C   0  0  0  0  0  0  0  0  0  0  0  0
   -3.6473    0.3576    0.0522 C   0  0  0  0  0  0  0  0  0  0  0  0
   -2.5045    0.1707    0.8380 C   0  0  0  0  0  0  0  0  0  0  0  0
   -2.6788    0.4130    2.5413 Cl  0  0  0  0  0  0  0  0  0  0  0  0
   -0.9268   -2.0552    2.2360 H   0  0  0  0  0  0  0  0  0  0  0  0
   -0.0935    0.2063    1.9771 H   0  0  0  0  0  0  0  0  0  0  0  0
    0.5657    2.1750    0.6612 H   0  0  0  0  0  0  0  0  0  0  0  0
    2.5262    3.2021   -0.4037 H   0  0  0  0  0  0  0  0  0  0  0  0
    4.2220   -0.6931   -1.0622 H   0  0  0  0  0  0  0  0  0  0  0  0
    2.2982   -1.7408   -0.0123 H   0  0  0  0  0  0  0  0  0  0  0  0
   -0.3383   -0.7170   -1.6438 H   0  0  0  0  0  0  0  0  0  0  0  0
   -2.3513   -0.3787   -2.9973 H   0  0  0  0  0  0  0  0  0  0  0  0
   -4.4836    0.3095   -1.9331 H   0  0  0  0  0  0  0  0  0  0  0  0
   -4.5884    0.6522    0.5108 H   0  0  0  0  0  0  0  0  0  0  0  0
  1  2  1  0
  2  3  1  0
  2  4  1  0
  4  5  1  0
  5  6  2  0
  6  7  1  0
  7  8  2  0
  8  9  1  0
  8 10  1  0
 10 11  2  0
  4 12  1  0
 12 13  2  0
 13 14  1  0
 14 15  2  0
 15 16  1  0
 16 17  2  0
 17 18  1  0
 11  5  1  0
 17 12  1  0
  2 19  1  0
  4 20  1  0
  6 21  1  0
  7 22  1  0
 10 23  1  0
 11 24  1  0
 13 25  1  0
 14 26  1  0
 15 27  1  0
 16 28  1  0
M  END
>  <Energy>  (3) 
70.22452762771653

>  <Real charge>  (3) 
0

>  <Mult>  (3) 
1

$$$$
