mol_679 260
     RDKit          3D

 26 27  0  0  0  0  0  0  0  0999 V2000
   -0.0925    1.5728    1.3759 C   0  0  0  0  0  0  0  0  0  0  0  0
    0.9065    0.6858    0.8085 C   0  0  0  0  0  0  0  0  0  0  0  0
    2.1668    1.0575    1.2005 O   0  0  0  0  0  0  0  0  0  0  0  0
    3.2875    0.3033    0.7659 C   0  0  0  0  0  0  0  0  0  0  0  0
    0.5201   -0.3515    0.0266 C   0  0  0  0  0  0  0  0  0  0  0  0
    1.4031   -1.3308   -0.3972 O   0  0  0  0  0  0  0  0  0  0  0  0
    1.5062   -1.4198   -1.8173 C   0  0  0  0  0  0  0  0  0  0  0  0
   -0.9511   -0.6216   -0.2223 C   0  0  0  0  0  0  0  0  0  0  0  0
   -1.4842    0.0630   -1.4703 C   0  0  0  0  0  0  0  0  0  0  0  0
   -0.9062    0.2034   -2.5369 O   0  0  0  0  0  0  0  0  0  0  0  0
   -2.7800    0.4571   -1.2729 O   0  0  0  0  0  0  0  0  0  0  0  0
   -3.1767    0.1269    0.0568 C   0  0  0  0  0  0  0  0  0  0  0  0
   -1.8931   -0.0556    0.8439 C   0  0  0  0  0  0  0  0  0  0  0  0
   -1.3904    1.2414    1.4337 C   0  0  0  0  0  0  0  0  0  0  0  0
    0.2591    2.5050    1.8112 H   0  0  0  0  0  0  0  0  0  0  0  0
    3.2515   -0.7185    1.1555 H   0  0  0  0  0  0  0  0  0  0  0  0
    3.3771    0.3202   -0.3243 H   0  0  0  0  0  0  0  0  0  0  0  0
    4.1852    0.7772    1.1749 H   0  0  0  0  0  0  0  0  0  0  0  0
    0.6209   -1.9038   -2.2395 H   0  0  0  0  0  0  0  0  0  0  0  0
    2.3714   -2.0480   -2.0493 H   0  0  0  0  0  0  0  0  0  0  0  0
    1.6735   -0.4360   -2.2680 H   0  0  0  0  0  0  0  0  0  0  0  0
   -1.1319   -1.6986   -0.3306 H   0  0  0  0  0  0  0  0  0  0  0  0
   -3.8196    0.9203    0.4512 H   0  0  0  0  0  0  0  0  0  0  0  0
   -3.7598   -0.8001    0.0155 H   0  0  0  0  0  0  0  0  0  0  0  0
   -2.0495   -0.7577    1.6714 H   0  0  0  0  0  0  0  0  0  0  0  0
   -2.0939    1.9082    1.9254 H   0  0  0  0  0  0  0  0  0  0  0  0
  1  2  1  0
  2  3  1  0
  3  4  1  0
  2  5  2  0
  5  6  1  0
  6  7  1  0
  5  8  1  0
  8  9  1  0
  9 10  2  0
  9 11  1  0
 11 12  1  0
 12 13  1  0
 13 14  1  0
 14  1  2  0
 13  8  1  0
  1 15  1  0
  4 16  1  0
  4 17  1  0
  4 18  1  0
  7 19  1  0
  7 20  1  0
  7 21  1  0
  8 22  1  0
 12 23  1  0
 12 24  1  0
 13 25  1  0
 14 26  1  0
M  END
>  <Energy>  (1) 
34.80951210477643

>  <Real charge>  (1) 
0

>  <Mult>  (1) 
1

$$$$
