mol_371 298
     RDKit          3D

 33 34  0  0  0  0  0  0  0  0999 V2000
   -4.8965   -1.7400   -0.1870 C   0  0  0  0  0  0  0  0  0  0  0  0
   -3.8974   -0.7731    0.1968 N   0  0  0  0  0  0  0  0  0  0  0  0
   -4.0561    0.0781    1.3538 C   0  0  0  0  0  0  0  0  0  0  0  0
   -2.7363    0.8438    1.4162 C   0  0  0  0  0  0  0  0  0  0  0  0
   -2.8831    2.1455    0.8683 O   0  0  0  0  0  0  0  0  0  0  0  0
   -1.8412    0.0859    0.5850 N   0  0  0  0  0  0  0  0  0  0  0  0
   -2.5452   -0.8694   -0.1633 C   0  0  0  0  0  0  0  0  0  0  0  0
   -2.1181   -1.6787   -0.9717 O   0  0  0  0  0  0  0  0  0  0  0  0
   -0.4857    0.3149    0.5269 C   0  0  0  0  0  0  0  0  0  0  0  0
    0.1105    1.2679    1.2131 N   0  0  0  0  0  0  0  0  0  0  0  0
    1.4679    1.3114    0.9841 N   0  0  0  0  0  0  0  0  0  0  0  0
    1.8663    0.3875    0.1301 C   0  0  0  0  0  0  0  0  0  0  0  0
    0.5733   -0.5998   -0.4438 S   0  0  0  0  0  0  0  0  0  0  0  0
    3.3056    0.1872   -0.3219 C   0  0  0  0  0  0  0  0  0  0  0  0
    4.2196    1.2232    0.3678 C   0  0  0  0  0  0  0  0  0  0  0  0
    3.8055   -1.2174    0.0629 C   0  0  0  0  0  0  0  0  0  0  0  0
    3.4294    0.3838   -1.8440 C   0  0  0  0  0  0  0  0  0  0  0  0
   -4.9535   -2.5128    0.5847 H   0  0  0  0  0  0  0  0  0  0  0  0
   -4.6279   -2.2065   -1.1384 H   0  0  0  0  0  0  0  0  0  0  0  0
   -5.8621   -1.2373   -0.2833 H   0  0  0  0  0  0  0  0  0  0  0  0
   -4.1709   -0.5726    2.2274 H   0  0  0  0  0  0  0  0  0  0  0  0
   -4.9348    0.7181    1.2352 H   0  0  0  0  0  0  0  0  0  0  0  0
   -2.3662    0.9246    2.4441 H   0  0  0  0  0  0  0  0  0  0  0  0
   -1.9777    2.5028    0.8109 H   0  0  0  0  0  0  0  0  0  0  0  0
    5.2639    1.1000    0.0584 H   0  0  0  0  0  0  0  0  0  0  0  0
    4.1845    1.1238    1.4593 H   0  0  0  0  0  0  0  0  0  0  0  0
    3.9203    2.2486    0.1197 H   0  0  0  0  0  0  0  0  0  0  0  0
    4.8630   -1.3446   -0.1962 H   0  0  0  0  0  0  0  0  0  0  0  0
    3.2488   -2.0062   -0.4554 H   0  0  0  0  0  0  0  0  0  0  0  0
    3.7018   -1.3947    1.1399 H   0  0  0  0  0  0  0  0  0  0  0  0
    2.8650   -0.3721   -2.4015 H   0  0  0  0  0  0  0  0  0  0  0  0
    4.4742    0.3108   -2.1676 H   0  0  0  0  0  0  0  0  0  0  0  0
    3.0531    1.3673   -2.1494 H   0  0  0  0  0  0  0  0  0  0  0  0
  1  2  1  0
  2  3  1  0
  3  4  1  0
  4  5  1  0
  4  6  1  0
  6  7  1  0
  7  8  2  0
  6  9  1  0
  9 10  2  0
 10 11  1  0
 11 12  2  0
 12 13  1  0
 12 14  1  0
 14 15  1  0
 14 16  1  0
 14 17  1  0
  7  2  1  0
 13  9  1  0
  1 18  1  0
  1 19  1  0
  1 20  1  0
  3 21  1  0
  3 22  1  0
  4 23  1  0
  5 24  1  0
 15 25  1  0
 15 26  1  0
 15 27  1  0
 16 28  1  0
 16 29  1  0
 16 30  1  0
 17 31  1  0
 17 32  1  0
 17 33  1  0
M  END
>  <Energy>  (1) 
-43.82081654232241

>  <Real charge>  (1) 
0

>  <Mult>  (1) 
1

$$$$
