mol_813 10
     RDKit          3D

 34 35  0  0  0  0  0  0  0  0999 V2000
   -2.2201   -3.1684   -0.8541 C   0  0  0  0  0  0  0  0  0  0  0  0
   -2.8964   -2.0419   -1.0963 C   0  0  0  0  0  0  0  0  0  0  0  0
   -2.3661   -0.7694   -0.6329 C   0  0  0  0  0  0  0  0  0  0  0  0
   -3.0312    0.4301   -0.8733 C   0  0  0  0  0  0  0  0  0  0  0  0
   -2.4865    1.6381   -0.4232 C   0  0  0  0  0  0  0  0  0  0  0  0
   -1.2709    1.6621    0.2739 C   0  0  0  0  0  0  0  0  0  0  0  0
   -0.6676    2.8035    0.7351 O   0  0  0  0  0  0  0  0  0  0  0  0
   -1.3035    4.0451    0.4619 C   0  0  0  0  0  0  0  0  0  0  0  0
   -0.5923    0.4556    0.5368 C   0  0  0  0  0  0  0  0  0  0  0  0
    0.7353    0.4406    1.2661 C   0  0  0  0  0  0  0  0  0  0  0  0
    1.9029    0.5639    0.3220 C   0  0  0  0  0  0  0  0  0  0  0  0
    2.8530   -0.3493    0.0383 C   0  0  0  0  0  0  0  0  0  0  0  0
    3.9495   -0.0309   -0.9447 C   0  0  0  0  0  0  0  0  0  0  0  0
    2.9349   -1.7334    0.6215 C   0  0  0  0  0  0  0  0  0  0  0  0
   -1.1594   -0.7420    0.0661 C   0  0  0  0  0  0  0  0  0  0  0  0
   -0.4692   -1.9515    0.3174 O   0  0  0  0  0  0  0  0  0  0  0  0
   -0.9427   -3.1777   -0.1227 C   0  0  0  0  0  0  0  0  0  0  0  0
   -0.3451   -4.2277    0.0826 O   0  0  0  0  0  0  0  0  0  0  0  0
   -2.5802   -4.1346   -1.1852 H   0  0  0  0  0  0  0  0  0  0  0  0
   -3.8359   -2.0588   -1.6375 H   0  0  0  0  0  0  0  0  0  0  0  0
   -3.9742    0.4445   -1.4146 H   0  0  0  0  0  0  0  0  0  0  0  0
   -3.0382    2.5479   -0.6380 H   0  0  0  0  0  0  0  0  0  0  0  0
   -0.6810    4.8392    0.8854 H   0  0  0  0  0  0  0  0  0  0  0  0
   -1.3794    4.2217   -0.6160 H   0  0  0  0  0  0  0  0  0  0  0  0
   -2.2851    4.0998    0.9439 H   0  0  0  0  0  0  0  0  0  0  0  0
    0.7969   -0.4507    1.8977 H   0  0  0  0  0  0  0  0  0  0  0  0
    0.7807    1.2703    1.9828 H   0  0  0  0  0  0  0  0  0  0  0  0
    1.9572    1.5349   -0.1712 H   0  0  0  0  0  0  0  0  0  0  0  0
    3.9233   -0.7351   -1.7828 H   0  0  0  0  0  0  0  0  0  0  0  0
    4.9277   -0.1043   -0.4583 H   0  0  0  0  0  0  0  0  0  0  0  0
    3.8589    0.9794   -1.3573 H   0  0  0  0  0  0  0  0  0  0  0  0
    2.8461   -2.4810   -0.1738 H   0  0  0  0  0  0  0  0  0  0  0  0
    2.1586   -1.9462    1.3584 H   0  0  0  0  0  0  0  0  0  0  0  0
    3.9001   -1.8737    1.1197 H   0  0  0  0  0  0  0  0  0  0  0  0
  1  2  2  0
  2  3  1  0
  3  4  2  0
  4  5  1  0
  5  6  2  0
  6  7  1  0
  7  8  1  0
  6  9  1  0
  9 10  1  0
 10 11  1  0
 11 12  2  3
 12 13  1  0
 12 14  1  0
  9 15  2  0
 15 16  1  0
 16 17  1  0
 17 18  2  0
 17  1  1  0
 15  3  1  0
  1 19  1  0
  2 20  1  0
  4 21  1  0
  5 22  1  0
  8 23  1  0
  8 24  1  0
  8 25  1  0
 10 26  1  0
 10 27  1  0
 11 28  1  0
 13 29  1  0
 13 30  1  0
 13 31  1  0
 14 32  1  0
 14 33  1  0
 14 34  1  0
M  END
>  <Energy>  (1) 
51.37515498154284

>  <Real charge>  (1) 
0

>  <Mult>  (1) 
1

$$$$
mol_813 150
     RDKit          3D

 34 35  0  0  0  0  0  0  0  0999 V2000
   -3.3081    2.5811   -1.7858 C   0  0  0  0  0  0  0  0  0  0  0  0
   -3.6357    1.3188   -1.4961 C   0  0  0  0  0  0  0  0  0  0  0  0
   -2.7280    0.5022   -0.7061 C   0  0  0  0  0  0  0  0  0  0  0  0
   -3.0266   -0.8198   -0.3868 C   0  0  0  0  0  0  0  0  0  0  0  0
   -2.1276   -1.5794    0.3699 C   0  0  0  0  0  0  0  0  0  0  0  0
   -0.9189   -1.0277    0.8159 C   0  0  0  0  0  0  0  0  0  0  0  0
    0.0057   -1.7085    1.5640 O   0  0  0  0  0  0  0  0  0  0  0  0
   -0.1630   -3.1131    1.7011 C   0  0  0  0  0  0  0  0  0  0  0  0
   -0.6081    0.3127    0.5140 C   0  0  0  0  0  0  0  0  0  0  0  0
    0.6966    0.9377    0.9637 C   0  0  0  0  0  0  0  0  0  0  0  0
    1.7700    0.8443   -0.0900 C   0  0  0  0  0  0  0  0  0  0  0  0
    2.9103    0.1259   -0.0639 C   0  0  0  0  0  0  0  0  0  0  0  0
    3.8703    0.1737   -1.2242 C   0  0  0  0  0  0  0  0  0  0  0  0
    3.3456   -0.7753    1.0579 C   0  0  0  0  0  0  0  0  0  0  0  0
   -1.5269    1.0497   -0.2548 C   0  0  0  0  0  0  0  0  0  0  0  0
   -1.2046    2.3905   -0.5758 O   0  0  0  0  0  0  0  0  0  0  0  0
   -2.0478    3.1910   -1.3321 C   0  0  0  0  0  0  0  0  0  0  0  0
   -1.7744    4.3508   -1.6178 O   0  0  0  0  0  0  0  0  0  0  0  0
   -3.9566    3.2204   -2.3720 H   0  0  0  0  0  0  0  0  0  0  0  0
   -4.5698    0.8898   -1.8416 H   0  0  0  0  0  0  0  0  0  0  0  0
   -3.9556   -1.2766   -0.7194 H   0  0  0  0  0  0  0  0  0  0  0  0
   -2.4042   -2.6035    0.6001 H   0  0  0  0  0  0  0  0  0  0  0  0
    0.7144   -3.5046    2.2249 H   0  0  0  0  0  0  0  0  0  0  0  0
   -1.0434   -3.3438    2.3094 H   0  0  0  0  0  0  0  0  0  0  0  0
   -0.2146   -3.6060    0.7246 H   0  0  0  0  0  0  0  0  0  0  0  0
    0.5333    1.9982    1.1958 H   0  0  0  0  0  0  0  0  0  0  0  0
    1.0097    0.5106    1.9208 H   0  0  0  0  0  0  0  0  0  0  0  0
    1.5725    1.4620   -0.9666 H   0  0  0  0  0  0  0  0  0  0  0  0
    3.9997   -0.8267   -1.6503 H   0  0  0  0  0  0  0  0  0  0  0  0
    4.8473    0.5404   -0.8927 H   0  0  0  0  0  0  0  0  0  0  0  0
    3.5226    0.8335   -2.0261 H   0  0  0  0  0  0  0  0  0  0  0  0
    4.3177   -0.4507    1.4440 H   0  0  0  0  0  0  0  0  0  0  0  0
    3.4454   -1.8038    0.6951 H   0  0  0  0  0  0  0  0  0  0  0  0
    2.6528   -0.7937    1.9008 H   0  0  0  0  0  0  0  0  0  0  0  0
  1  2  2  0
  2  3  1  0
  3  4  2  0
  4  5  1  0
  5  6  2  0
  6  7  1  0
  7  8  1  0
  6  9  1  0
  9 10  1  0
 10 11  1  0
 11 12  2  3
 12 13  1  0
 12 14  1  0
  9 15  2  0
 15 16  1  0
 16 17  1  0
 17 18  2  0
 17  1  1  0
 15  3  1  0
  1 19  1  0
  2 20  1  0
  4 21  1  0
  5 22  1  0
  8 23  1  0
  8 24  1  0
  8 25  1  0
 10 26  1  0
 10 27  1  0
 11 28  1  0
 13 29  1  0
 13 30  1  0
 13 31  1  0
 14 32  1  0
 14 33  1  0
 14 34  1  0
M  END
>  <Energy>  (2) 
51.98862426851457

>  <Real charge>  (2) 
0

>  <Mult>  (2) 
1

$$$$
mol_813 99
     RDKit          3D

 34 35  0  0  0  0  0  0  0  0999 V2000
    4.0475   -2.0938   -0.5019 C   0  0  0  0  0  0  0  0  0  0  0  0
    4.1084   -0.8706    0.0318 C   0  0  0  0  0  0  0  0  0  0  0  0
    2.9377   -0.0083   -0.0059 C   0  0  0  0  0  0  0  0  0  0  0  0
    2.9605    1.2743    0.5409 C   0  0  0  0  0  0  0  0  0  0  0  0
    1.8153    2.0717    0.4921 C   0  0  0  0  0  0  0  0  0  0  0  0
    0.6401    1.5857   -0.0935 C   0  0  0  0  0  0  0  0  0  0  0  0
   -0.4738    2.3828   -0.1642 O   0  0  0  0  0  0  0  0  0  0  0  0
   -0.9793    2.6945    1.1341 C   0  0  0  0  0  0  0  0  0  0  0  0
    0.6003    0.3132   -0.6824 C   0  0  0  0  0  0  0  0  0  0  0  0
   -0.6593   -0.2126   -1.3323 C   0  0  0  0  0  0  0  0  0  0  0  0
   -1.5156   -0.9955   -0.3705 C   0  0  0  0  0  0  0  0  0  0  0  0
   -2.7659   -0.7230    0.0536 C   0  0  0  0  0  0  0  0  0  0  0  0
   -3.4649   -1.6496    1.0147 C   0  0  0  0  0  0  0  0  0  0  0  0
   -3.5834    0.4717   -0.3523 C   0  0  0  0  0  0  0  0  0  0  0  0
    1.7641   -0.4703   -0.6084 C   0  0  0  0  0  0  0  0  0  0  0  0
    1.7279   -1.7707   -1.1661 O   0  0  0  0  0  0  0  0  0  0  0  0
    2.8272   -2.6162   -1.1373 C   0  0  0  0  0  0  0  0  0  0  0  0
    2.8020   -3.7456   -1.6120 O   0  0  0  0  0  0  0  0  0  0  0  0
    4.8977   -2.7647   -0.4926 H   0  0  0  0  0  0  0  0  0  0  0  0
    5.0191   -0.5071    0.4949 H   0  0  0  0  0  0  0  0  0  0  0  0
    3.8620    1.6687    1.0028 H   0  0  0  0  0  0  0  0  0  0  0  0
    1.8495    3.0785    0.8992 H   0  0  0  0  0  0  0  0  0  0  0  0
   -1.9946    3.0836    1.0120 H   0  0  0  0  0  0  0  0  0  0  0  0
   -1.0325    1.8058    1.7735 H   0  0  0  0  0  0  0  0  0  0  0  0
   -0.3768    3.4746    1.6099 H   0  0  0  0  0  0  0  0  0  0  0  0
   -1.2017    0.6108   -1.8057 H   0  0  0  0  0  0  0  0  0  0  0  0
   -0.3935   -0.8698   -2.1702 H   0  0  0  0  0  0  0  0  0  0  0  0
   -1.0371   -1.9048   -0.0051 H   0  0  0  0  0  0  0  0  0  0  0  0
   -4.3875   -2.0337    0.5674 H   0  0  0  0  0  0  0  0  0  0  0  0
   -2.8457   -2.5100    1.2893 H   0  0  0  0  0  0  0  0  0  0  0  0
   -3.7199   -1.1167    1.9366 H   0  0  0  0  0  0  0  0  0  0  0  0
   -3.8709    1.0475    0.5338 H   0  0  0  0  0  0  0  0  0  0  0  0
   -4.4966    0.1457   -0.8612 H   0  0  0  0  0  0  0  0  0  0  0  0
   -3.0602    1.1540   -1.0245 H   0  0  0  0  0  0  0  0  0  0  0  0
  1  2  2  0
  2  3  1  0
  3  4  2  0
  4  5  1  0
  5  6  2  0
  6  7  1  0
  7  8  1  0
  6  9  1  0
  9 10  1  0
 10 11  1  0
 11 12  2  3
 12 13  1  0
 12 14  1  0
  9 15  2  0
 15 16  1  0
 16 17  1  0
 17 18  2  0
 17  1  1  0
 15  3  1  0
  1 19  1  0
  2 20  1  0
  4 21  1  0
  5 22  1  0
  8 23  1  0
  8 24  1  0
  8 25  1  0
 10 26  1  0
 10 27  1  0
 11 28  1  0
 13 29  1  0
 13 30  1  0
 13 31  1  0
 14 32  1  0
 14 33  1  0
 14 34  1  0
M  END
>  <Energy>  (3) 
52.099913417404025

>  <Real charge>  (3) 
0

>  <Mult>  (3) 
1

$$$$
