mol_81 90
     RDKit          3D

 26 25  0  0  0  0  0  0  0  0999 V2000
    2.4752   -1.7410    0.5910 C   0  0  0  0  0  0  0  0  0  0  0  0
    1.7301   -0.7123   -0.0341 O   0  0  0  0  0  0  0  0  0  0  0  0
    1.8005    0.7898    0.5791 P   0  0  0  0  0  5  0  0  0  0  0  0
    3.5863    1.5679    0.5175 S   0  0  0  0  0  0  0  0  0  0  0  0
    0.7636    1.5208   -0.4460 O   0  0  0  0  0  0  0  0  0  0  0  0
    1.0778    1.5648   -1.8270 C   0  0  0  0  0  0  0  0  0  0  0  0
    0.7745    0.7824    2.4224 S   0  0  0  0  0  0  0  0  0  0  0  0
   -0.9610    0.5659    1.9346 C   0  0  0  0  0  0  0  0  0  0  0  0
   -1.1313   -0.6799    1.0703 C   0  0  0  0  0  0  0  0  0  0  0  0
   -0.6469   -1.7573    1.4302 O   0  0  0  0  0  0  0  0  0  0  0  0
   -1.8682   -0.5631   -0.0939 N   0  0  0  0  0  0  0  0  0  0  0  0
   -2.7020    0.5844   -0.4078 C   0  0  0  0  0  0  0  0  0  0  0  0
   -1.6545   -1.4810   -1.1064 C   0  0  0  0  0  0  0  0  0  0  0  0
   -2.0818   -1.3850   -2.2526 O   0  0  0  0  0  0  0  0  0  0  0  0
    2.4139   -1.6710    1.6796 H   0  0  0  0  0  0  0  0  0  0  0  0
    2.0654   -2.7048    0.2781 H   0  0  0  0  0  0  0  0  0  0  0  0
    3.5196   -1.6864    0.2739 H   0  0  0  0  0  0  0  0  0  0  0  0
    1.4644    0.6049   -2.1783 H   0  0  0  0  0  0  0  0  0  0  0  0
    1.8072    2.3555   -2.0185 H   0  0  0  0  0  0  0  0  0  0  0  0
    0.1637    1.7941   -2.3807 H   0  0  0  0  0  0  0  0  0  0  0  0
   -1.2603    1.4801    1.4219 H   0  0  0  0  0  0  0  0  0  0  0  0
   -1.5828    0.4536    2.8276 H   0  0  0  0  0  0  0  0  0  0  0  0
   -3.4540    0.3289   -1.1603 H   0  0  0  0  0  0  0  0  0  0  0  0
   -2.0688    1.3850   -0.8009 H   0  0  0  0  0  0  0  0  0  0  0  0
   -3.2165    0.9328    0.4923 H   0  0  0  0  0  0  0  0  0  0  0  0
   -1.0137   -2.3290   -0.8119 H   0  0  0  0  0  0  0  0  0  0  0  0
  1  2  1  0
  2  3  1  0
  3  4  2  0
  3  5  1  0
  5  6  1  0
  3  7  1  0
  7  8  1  0
  8  9  1  0
  9 10  2  0
  9 11  1  0
 11 12  1  0
 11 13  1  0
 13 14  2  0
  1 15  1  0
  1 16  1  0
  1 17  1  0
  6 18  1  0
  6 19  1  0
  6 20  1  0
  8 21  1  0
  8 22  1  0
 12 23  1  0
 12 24  1  0
 12 25  1  0
 13 26  1  0
M  END
>  <Energy>  (1) 
-107.56423954436505

>  <Real charge>  (1) 
0

>  <Mult>  (1) 
1

$$$$
mol_81 232
     RDKit          3D

 26 25  0  0  0  0  0  0  0  0999 V2000
   -3.7709    1.7905    0.4829 C   0  0  0  0  0  0  0  0  0  0  0  0
   -2.8709    0.9669    1.1999 O   0  0  0  0  0  0  0  0  0  0  0  0
   -1.4135    0.6216    0.5567 P   0  0  0  0  0  5  0  0  0  0  0  0
   -0.4276    2.2380    0.0620 S   0  0  0  0  0  0  0  0  0  0  0  0
   -1.8858   -0.2075   -0.7578 O   0  0  0  0  0  0  0  0  0  0  0  0
   -2.5584   -1.4406   -0.6021 C   0  0  0  0  0  0  0  0  0  0  0  0
   -0.5206   -0.7061    1.9378 S   0  0  0  0  0  0  0  0  0  0  0  0
    1.2608   -0.5998    1.5824 C   0  0  0  0  0  0  0  0  0  0  0  0
    1.5553   -0.7760    0.0950 C   0  0  0  0  0  0  0  0  0  0  0  0
    0.8122   -1.4358   -0.6375 O   0  0  0  0  0  0  0  0  0  0  0  0
    2.7112   -0.1712   -0.4015 N   0  0  0  0  0  0  0  0  0  0  0  0
    2.8576   -0.1259   -1.8438 C   0  0  0  0  0  0  0  0  0  0  0  0
    3.8353    0.0889    0.3673 C   0  0  0  0  0  0  0  0  0  0  0  0
    3.9616   -0.0873    1.5717 O   0  0  0  0  0  0  0  0  0  0  0  0
   -3.5280    2.8423    0.6538 H   0  0  0  0  0  0  0  0  0  0  0  0
   -3.7483    1.5709   -0.5877 H   0  0  0  0  0  0  0  0  0  0  0  0
   -4.7817    1.6030    0.8546 H   0  0  0  0  0  0  0  0  0  0  0  0
   -3.2935   -1.3930    0.2054 H   0  0  0  0  0  0  0  0  0  0  0  0
   -1.8389   -2.2384   -0.4040 H   0  0  0  0  0  0  0  0  0  0  0  0
   -3.0814   -1.6695   -1.5343 H   0  0  0  0  0  0  0  0  0  0  0  0
    1.5927    0.3819    1.9284 H   0  0  0  0  0  0  0  0  0  0  0  0
    1.7762   -1.3841    2.1434 H   0  0  0  0  0  0  0  0  0  0  0  0
    3.1945   -1.1081   -2.1907 H   0  0  0  0  0  0  0  0  0  0  0  0
    3.5966    0.6259   -2.1364 H   0  0  0  0  0  0  0  0  0  0  0  0
    1.8993    0.1098   -2.3171 H   0  0  0  0  0  0  0  0  0  0  0  0
    4.6664    0.5032   -0.2284 H   0  0  0  0  0  0  0  0  0  0  0  0
  1  2  1  0
  2  3  1  0
  3  4  2  0
  3  5  1  0
  5  6  1  0
  3  7  1  0
  7  8  1  0
  8  9  1  0
  9 10  2  0
  9 11  1  0
 11 12  1  0
 11 13  1  0
 13 14  2  0
  1 15  1  0
  1 16  1  0
  1 17  1  0
  6 18  1  0
  6 19  1  0
  6 20  1  0
  8 21  1  0
  8 22  1  0
 12 23  1  0
 12 24  1  0
 12 25  1  0
 13 26  1  0
M  END
>  <Energy>  (2) 
-107.45336526728809

>  <Real charge>  (2) 
0

>  <Mult>  (2) 
1

$$$$
mol_81 405
     RDKit          3D

 26 25  0  0  0  0  0  0  0  0999 V2000
   -1.9954   -2.0124    0.4717 C   0  0  0  0  0  0  0  0  0  0  0  0
   -2.6408   -0.7898    0.1776 O   0  0  0  0  0  0  0  0  0  0  0  0
   -1.7423    0.5438   -0.0694 P   0  0  0  0  0  5  0  0  0  0  0  0
   -0.7390    0.5046   -1.7508 S   0  0  0  0  0  0  0  0  0  0  0  0
   -2.9486    1.6393   -0.1503 O   0  0  0  0  0  0  0  0  0  0  0  0
   -4.0598    1.3917   -0.9896 C   0  0  0  0  0  0  0  0  0  0  0  0
   -0.7873    1.0190    1.7515 S   0  0  0  0  0  0  0  0  0  0  0  0
    0.9785    1.1525    1.3479 C   0  0  0  0  0  0  0  0  0  0  0  0
    1.5379   -0.1527    0.7847 C   0  0  0  0  0  0  0  0  0  0  0  0
    0.9635   -1.2333    0.9565 O   0  0  0  0  0  0  0  0  0  0  0  0
    2.7392   -0.0792    0.0723 N   0  0  0  0  0  0  0  0  0  0  0  0
    3.1619   -1.2838   -0.6174 C   0  0  0  0  0  0  0  0  0  0  0  0
    3.6483    0.9640    0.1690 C   0  0  0  0  0  0  0  0  0  0  0  0
    3.5300    1.9891    0.8267 O   0  0  0  0  0  0  0  0  0  0  0  0
   -1.2268   -2.2388   -0.2706 H   0  0  0  0  0  0  0  0  0  0  0  0
   -1.5618   -1.9788    1.4735 H   0  0  0  0  0  0  0  0  0  0  0  0
   -2.7424   -2.8103    0.4475 H   0  0  0  0  0  0  0  0  0  0  0  0
   -4.7088    0.6385   -0.5352 H   0  0  0  0  0  0  0  0  0  0  0  0
   -3.7461    1.0611   -1.9822 H   0  0  0  0  0  0  0  0  0  0  0  0
   -4.6272    2.3200   -1.0954 H   0  0  0  0  0  0  0  0  0  0  0  0
    1.5174    1.4009    2.2663 H   0  0  0  0  0  0  0  0  0  0  0  0
    1.0849    1.9616    0.6212 H   0  0  0  0  0  0  0  0  0  0  0  0
    3.9302   -1.0628   -1.3639 H   0  0  0  0  0  0  0  0  0  0  0  0
    3.5734   -1.9799    0.1206 H   0  0  0  0  0  0  0  0  0  0  0  0
    2.3081   -1.7568   -1.1126 H   0  0  0  0  0  0  0  0  0  0  0  0
    4.5530    0.7923   -0.4385 H   0  0  0  0  0  0  0  0  0  0  0  0
  1  2  1  0
  2  3  1  0
  3  4  2  0
  3  5  1  0
  5  6  1  0
  3  7  1  0
  7  8  1  0
  8  9  1  0
  9 10  2  0
  9 11  1  0
 11 12  1  0
 11 13  1  0
 13 14  2  0
  1 15  1  0
  1 16  1  0
  1 17  1  0
  6 18  1  0
  6 19  1  0
  6 20  1  0
  8 21  1  0
  8 22  1  0
 12 23  1  0
 12 24  1  0
 12 25  1  0
 13 26  1  0
M  END
>  <Energy>  (3) 
-107.37894982799992

>  <Real charge>  (3) 
0

>  <Mult>  (3) 
1

$$$$
mol_81 272
     RDKit          3D

 26 25  0  0  0  0  0  0  0  0999 V2000
   -2.6010   -1.4531    0.6207 C   0  0  0  0  0  0  0  0  0  0  0  0
   -1.8316   -0.2985    0.3400 O   0  0  0  0  0  0  0  0  0  0  0  0
   -1.6989    0.1991   -1.1998 P   0  0  0  0  0  5  0  0  0  0  0  0
   -3.4005    0.7332   -1.9866 S   0  0  0  0  0  0  0  0  0  0  0  0
   -0.6951    1.4623   -0.9613 O   0  0  0  0  0  0  0  0  0  0  0  0
   -1.1351    2.5535   -0.1733 C   0  0  0  0  0  0  0  0  0  0  0  0
   -0.5115   -1.2019   -2.2386 S   0  0  0  0  0  0  0  0  0  0  0  0
    1.1385   -0.9389   -1.5303 C   0  0  0  0  0  0  0  0  0  0  0  0
    1.1261   -1.1516   -0.0202 C   0  0  0  0  0  0  0  0  0  0  0  0
    0.5410   -2.1157    0.4807 O   0  0  0  0  0  0  0  0  0  0  0  0
    1.8269   -0.2301    0.7593 N   0  0  0  0  0  0  0  0  0  0  0  0
    1.5784   -0.2599    2.1886 C   0  0  0  0  0  0  0  0  0  0  0  0
    2.9809    0.4278    0.3531 C   0  0  0  0  0  0  0  0  0  0  0  0
    3.7503    1.0445    1.0810 O   0  0  0  0  0  0  0  0  0  0  0  0
   -2.3144   -1.8296    1.6060 H   0  0  0  0  0  0  0  0  0  0  0  0
   -2.4256   -2.2379   -0.1189 H   0  0  0  0  0  0  0  0  0  0  0  0
   -3.6625   -1.1940    0.6413 H   0  0  0  0  0  0  0  0  0  0  0  0
   -1.6802    2.2132    0.7107 H   0  0  0  0  0  0  0  0  0  0  0  0
   -1.7674    3.2138   -0.7719 H   0  0  0  0  0  0  0  0  0  0  0  0
   -0.2577    3.1166    0.1555 H   0  0  0  0  0  0  0  0  0  0  0  0
    1.4317    0.0782   -1.7951 H   0  0  0  0  0  0  0  0  0  0  0  0
    1.8495   -1.6401   -1.9763 H   0  0  0  0  0  0  0  0  0  0  0  0
    2.2087   -1.0342    2.6380 H   0  0  0  0  0  0  0  0  0  0  0  0
    0.5281   -0.4904    2.3923 H   0  0  0  0  0  0  0  0  0  0  0  0
    1.8235    0.7055    2.6417 H   0  0  0  0  0  0  0  0  0  0  0  0
    3.1978    0.3279   -0.7196 H   0  0  0  0  0  0  0  0  0  0  0  0
  1  2  1  0
  2  3  1  0
  3  4  2  0
  3  5  1  0
  5  6  1  0
  3  7  1  0
  7  8  1  0
  8  9  1  0
  9 10  2  0
  9 11  1  0
 11 12  1  0
 11 13  1  0
 13 14  2  0
  1 15  1  0
  1 16  1  0
  1 17  1  0
  6 18  1  0
  6 19  1  0
  6 20  1  0
  8 21  1  0
  8 22  1  0
 12 23  1  0
 12 24  1  0
 12 25  1  0
 13 26  1  0
M  END
>  <Energy>  (4) 
-107.37466266126495

>  <Real charge>  (4) 
0

>  <Mult>  (4) 
1

$$$$
mol_81 465
     RDKit          3D

 26 25  0  0  0  0  0  0  0  0999 V2000
   -1.9365    2.0512   -0.0167 C   0  0  0  0  0  0  0  0  0  0  0  0
   -1.2138    1.0933    0.7303 O   0  0  0  0  0  0  0  0  0  0  0  0
   -1.4539   -0.4891    0.4557 P   0  0  0  0  0  5  0  0  0  0  0  0
   -0.6156   -1.5316    1.8786 S   0  0  0  0  0  0  0  0  0  0  0  0
   -3.0789   -0.5277    0.5289 O   0  0  0  0  0  0  0  0  0  0  0  0
   -3.7412   -1.7723    0.4161 C   0  0  0  0  0  0  0  0  0  0  0  0
   -0.9084   -0.9097   -1.5408 S   0  0  0  0  0  0  0  0  0  0  0  0
    0.9116   -0.9567   -1.4731 C   0  0  0  0  0  0  0  0  0  0  0  0
    1.4633    0.3313   -0.8669 C   0  0  0  0  0  0  0  0  0  0  0  0
    1.0136    1.4360   -1.1850 O   0  0  0  0  0  0  0  0  0  0  0  0
    2.4972    0.2022    0.0561 N   0  0  0  0  0  0  0  0  0  0  0  0
    2.7868    1.3574    0.8825 C   0  0  0  0  0  0  0  0  0  0  0  0
    3.4988   -0.7452   -0.0832 C   0  0  0  0  0  0  0  0  0  0  0  0
    3.5534   -1.6370   -0.9199 O   0  0  0  0  0  0  0  0  0  0  0  0
   -1.4779    3.0309    0.1404 H   0  0  0  0  0  0  0  0  0  0  0  0
   -1.9152    1.8247   -1.0847 H   0  0  0  0  0  0  0  0  0  0  0  0
   -2.9714    2.0917    0.3327 H   0  0  0  0  0  0  0  0  0  0  0  0
   -3.7515   -2.2750    1.3865 H   0  0  0  0  0  0  0  0  0  0  0  0
   -4.7737   -1.5893    0.1075 H   0  0  0  0  0  0  0  0  0  0  0  0
   -3.2627   -2.4135   -0.3283 H   0  0  0  0  0  0  0  0  0  0  0  0
    1.1738   -1.8307   -0.8745 H   0  0  0  0  0  0  0  0  0  0  0  0
    1.3134   -1.0748   -2.4831 H   0  0  0  0  0  0  0  0  0  0  0  0
    3.3524    1.0598    1.7706 H   0  0  0  0  0  0  0  0  0  0  0  0
    3.3872    2.0642    0.3006 H   0  0  0  0  0  0  0  0  0  0  0  0
    1.8582    1.8462    1.1930 H   0  0  0  0  0  0  0  0  0  0  0  0
    4.2911   -0.6362    0.6770 H   0  0  0  0  0  0  0  0  0  0  0  0
  1  2  1  0
  2  3  1  0
  3  4  2  0
  3  5  1  0
  5  6  1  0
  3  7  1  0
  7  8  1  0
  8  9  1  0
  9 10  2  0
  9 11  1  0
 11 12  1  0
 11 13  1  0
 13 14  2  0
  1 15  1  0
  1 16  1  0
  1 17  1  0
  6 18  1  0
  6 19  1  0
  6 20  1  0
  8 21  1  0
  8 22  1  0
 12 23  1  0
 12 24  1  0
 12 25  1  0
 13 26  1  0
M  END
>  <Energy>  (5) 
-107.31478015978156

>  <Real charge>  (5) 
0

>  <Mult>  (5) 
1

$$$$
mol_81 222
     RDKit          3D

 26 25  0  0  0  0  0  0  0  0999 V2000
   -1.5561   -2.2678   -0.1421 C   0  0  0  0  0  0  0  0  0  0  0  0
   -0.8756   -1.0294   -0.2010 O   0  0  0  0  0  0  0  0  0  0  0  0
   -1.6569    0.3276    0.2349 P   0  0  0  0  0  5  0  0  0  0  0  0
   -2.4747    0.2438    2.0032 S   0  0  0  0  0  0  0  0  0  0  0  0
   -2.7533    0.3723   -0.9673 O   0  0  0  0  0  0  0  0  0  0  0  0
   -3.6987    1.4240   -0.9981 C   0  0  0  0  0  0  0  0  0  0  0  0
   -0.2870    1.8855   -0.1724 S   0  0  0  0  0  0  0  0  0  0  0  0
    1.0183    1.6477    1.0592 C   0  0  0  0  0  0  0  0  0  0  0  0
    1.5957    0.2445    0.9816 C   0  0  0  0  0  0  0  0  0  0  0  0
    1.3179   -0.5673    1.8693 O   0  0  0  0  0  0  0  0  0  0  0  0
    2.4398   -0.0802   -0.0853 N   0  0  0  0  0  0  0  0  0  0  0  0
    2.9197   -1.4498   -0.1353 C   0  0  0  0  0  0  0  0  0  0  0  0
    3.0032    0.8096   -0.9935 C   0  0  0  0  0  0  0  0  0  0  0  0
    3.8874    0.5487   -1.8020 O   0  0  0  0  0  0  0  0  0  0  0  0
   -1.5694   -2.6362    0.8866 H   0  0  0  0  0  0  0  0  0  0  0  0
   -2.5775   -2.1779   -0.5210 H   0  0  0  0  0  0  0  0  0  0  0  0
   -1.0166   -2.9886   -0.7619 H   0  0  0  0  0  0  0  0  0  0  0  0
   -4.5418    1.1813   -0.3463 H   0  0  0  0  0  0  0  0  0  0  0  0
   -4.0682    1.5289   -2.0214 H   0  0  0  0  0  0  0  0  0  0  0  0
   -3.2524    2.3724   -0.6888 H   0  0  0  0  0  0  0  0  0  0  0  0
    1.8044    2.3991    0.9502 H   0  0  0  0  0  0  0  0  0  0  0  0
    0.5896    1.7916    2.0565 H   0  0  0  0  0  0  0  0  0  0  0  0
    2.1228   -2.1454    0.1462 H   0  0  0  0  0  0  0  0  0  0  0  0
    3.2753   -1.7130   -1.1358 H   0  0  0  0  0  0  0  0  0  0  0  0
    3.7458   -1.5526    0.5756 H   0  0  0  0  0  0  0  0  0  0  0  0
    2.6082    1.8312   -0.9256 H   0  0  0  0  0  0  0  0  0  0  0  0
  1  2  1  0
  2  3  1  0
  3  4  2  0
  3  5  1  0
  5  6  1  0
  3  7  1  0
  7  8  1  0
  8  9  1  0
  9 10  2  0
  9 11  1  0
 11 12  1  0
 11 13  1  0
 13 14  2  0
  1 15  1  0
  1 16  1  0
  1 17  1  0
  6 18  1  0
  6 19  1  0
  6 20  1  0
  8 21  1  0
  8 22  1  0
 12 23  1  0
 12 24  1  0
 12 25  1  0
 13 26  1  0
M  END
>  <Energy>  (6) 
-107.28022845854917

>  <Real charge>  (6) 
0

>  <Mult>  (6) 
1

$$$$
mol_81 209
     RDKit          3D

 26 25  0  0  0  0  0  0  0  0999 V2000
    3.5281   -1.2773    1.6363 C   0  0  0  0  0  0  0  0  0  0  0  0
    2.7665   -0.2709    0.9977 O   0  0  0  0  0  0  0  0  0  0  0  0
    1.5590   -0.7055   -0.0048 P   0  0  0  0  0  5  0  0  0  0  0  0
    2.1767   -1.8148   -1.4860 S   0  0  0  0  0  0  0  0  0  0  0  0
    1.0635    0.7805   -0.4377 O   0  0  0  0  0  0  0  0  0  0  0  0
    1.9182    1.5940   -1.2169 C   0  0  0  0  0  0  0  0  0  0  0  0
    0.0178   -1.4427    1.2407 S   0  0  0  0  0  0  0  0  0  0  0  0
   -1.3623   -1.7492    0.1123 C   0  0  0  0  0  0  0  0  0  0  0  0
   -1.7074   -0.5049   -0.6867 C   0  0  0  0  0  0  0  0  0  0  0  0
   -1.2607   -0.3847   -1.8313 O   0  0  0  0  0  0  0  0  0  0  0  0
   -2.5107    0.4764   -0.0958 N   0  0  0  0  0  0  0  0  0  0  0  0
   -2.7940    1.6473   -0.9074 C   0  0  0  0  0  0  0  0  0  0  0  0
   -2.9266    0.5204    1.2311 C   0  0  0  0  0  0  0  0  0  0  0  0
   -3.5104    1.4526    1.7728 O   0  0  0  0  0  0  0  0  0  0  0  0
    3.9841   -0.8508    2.5335 H   0  0  0  0  0  0  0  0  0  0  0  0
    4.3242   -1.6165    0.9686 H   0  0  0  0  0  0  0  0  0  0  0  0
    2.9050   -2.1254    1.9305 H   0  0  0  0  0  0  0  0  0  0  0  0
    2.9513    1.5355   -0.8645 H   0  0  0  0  0  0  0  0  0  0  0  0
    1.8629    1.2935   -2.2662 H   0  0  0  0  0  0  0  0  0  0  0  0
    1.5798    2.6301   -1.1343 H   0  0  0  0  0  0  0  0  0  0  0  0
   -2.2364   -2.1178    0.6557 H   0  0  0  0  0  0  0  0  0  0  0  0
   -1.0801   -2.5420   -0.5885 H   0  0  0  0  0  0  0  0  0  0  0  0
   -3.6294    2.2280   -0.5063 H   0  0  0  0  0  0  0  0  0  0  0  0
   -3.0364    1.3481   -1.9321 H   0  0  0  0  0  0  0  0  0  0  0  0
   -1.8986    2.2772   -0.9283 H   0  0  0  0  0  0  0  0  0  0  0  0
   -2.6838   -0.3811    1.8075 H   0  0  0  0  0  0  0  0  0  0  0  0
  1  2  1  0
  2  3  1  0
  3  4  2  0
  3  5  1  0
  5  6  1  0
  3  7  1  0
  7  8  1  0
  8  9  1  0
  9 10  2  0
  9 11  1  0
 11 12  1  0
 11 13  1  0
 13 14  2  0
  1 15  1  0
  1 16  1  0
  1 17  1  0
  6 18  1  0
  6 19  1  0
  6 20  1  0
  8 21  1  0
  8 22  1  0
 12 23  1  0
 12 24  1  0
 12 25  1  0
 13 26  1  0
M  END
>  <Energy>  (7) 
-107.22343760246233

>  <Real charge>  (7) 
0

>  <Mult>  (7) 
1

$$$$
mol_81 100
     RDKit          3D

 26 25  0  0  0  0  0  0  0  0999 V2000
    2.9497    2.2765   -1.2452 C   0  0  0  0  0  0  0  0  0  0  0  0
    2.8776    0.9786   -0.6874 O   0  0  0  0  0  0  0  0  0  0  0  0
    1.4232    0.2682   -0.5182 P   0  0  0  0  0  5  0  0  0  0  0  0
    0.4667    0.0864   -2.2095 S   0  0  0  0  0  0  0  0  0  0  0  0
    1.9105   -1.1409    0.1252 O   0  0  0  0  0  0  0  0  0  0  0  0
    2.6753   -2.0332   -0.6612 C   0  0  0  0  0  0  0  0  0  0  0  0
    0.4585    1.2835    1.0660 S   0  0  0  0  0  0  0  0  0  0  0  0
   -0.4913   -0.0150    1.8954 C   0  0  0  0  0  0  0  0  0  0  0  0
   -1.4024   -0.7401    0.9199 C   0  0  0  0  0  0  0  0  0  0  0  0
   -1.1064   -1.8845    0.5644 O   0  0  0  0  0  0  0  0  0  0  0  0
   -2.5583   -0.0942    0.4706 N   0  0  0  0  0  0  0  0  0  0  0  0
   -3.3739   -0.8121   -0.4939 C   0  0  0  0  0  0  0  0  0  0  0  0
   -3.1090    1.0705    0.9955 C   0  0  0  0  0  0  0  0  0  0  0  0
   -4.2286    1.5088    0.7550 O   0  0  0  0  0  0  0  0  0  0  0  0
    2.9437    2.2100   -2.3361 H   0  0  0  0  0  0  0  0  0  0  0  0
    2.1210    2.9038   -0.9076 H   0  0  0  0  0  0  0  0  0  0  0  0
    3.8888    2.7383   -0.9293 H   0  0  0  0  0  0  0  0  0  0  0  0
    3.1796   -2.7376    0.0054 H   0  0  0  0  0  0  0  0  0  0  0  0
    2.0190   -2.5963   -1.3293 H   0  0  0  0  0  0  0  0  0  0  0  0
    3.4326   -1.5004   -1.2423 H   0  0  0  0  0  0  0  0  0  0  0  0
    0.2103   -0.7419    2.3184 H   0  0  0  0  0  0  0  0  0  0  0  0
   -1.0603    0.3884    2.7367 H   0  0  0  0  0  0  0  0  0  0  0  0
   -4.0321   -1.4954    0.0525 H   0  0  0  0  0  0  0  0  0  0  0  0
   -3.9870   -0.1215   -1.0807 H   0  0  0  0  0  0  0  0  0  0  0  0
   -2.7493   -1.3939   -1.1783 H   0  0  0  0  0  0  0  0  0  0  0  0
   -2.4580    1.5940    1.7069 H   0  0  0  0  0  0  0  0  0  0  0  0
  1  2  1  0
  2  3  1  0
  3  4  2  0
  3  5  1  0
  5  6  1  0
  3  7  1  0
  7  8  1  0
  8  9  1  0
  9 10  2  0
  9 11  1  0
 11 12  1  0
 11 13  1  0
 13 14  2  0
  1 15  1  0
  1 16  1  0
  1 17  1  0
  6 18  1  0
  6 19  1  0
  6 20  1  0
  8 21  1  0
  8 22  1  0
 12 23  1  0
 12 24  1  0
 12 25  1  0
 13 26  1  0
M  END
>  <Energy>  (8) 
-107.09313770217905

>  <Real charge>  (8) 
0

>  <Mult>  (8) 
1

$$$$
mol_81 182
     RDKit          3D

 26 25  0  0  0  0  0  0  0  0999 V2000
   -1.3410   -2.6886    0.4621 C   0  0  0  0  0  0  0  0  0  0  0  0
   -1.2912   -1.3894   -0.0983 O   0  0  0  0  0  0  0  0  0  0  0  0
   -2.1111   -0.1918    0.6327 P   0  0  0  0  0  5  0  0  0  0  0  0
   -4.0405   -0.4859    0.6373 S   0  0  0  0  0  0  0  0  0  0  0  0
   -1.6697    1.0331   -0.3488 O   0  0  0  0  0  0  0  0  0  0  0  0
   -2.0647    1.0065   -1.7074 C   0  0  0  0  0  0  0  0  0  0  0  0
   -1.1645    0.2329    2.4671 S   0  0  0  0  0  0  0  0  0  0  0  0
    0.3978    1.0096    1.9547 C   0  0  0  0  0  0  0  0  0  0  0  0
    1.2207    0.0626    1.0854 C   0  0  0  0  0  0  0  0  0  0  0  0
    1.2848   -1.1471    1.3268 O   0  0  0  0  0  0  0  0  0  0  0  0
    1.9220    0.6247    0.0190 N   0  0  0  0  0  0  0  0  0  0  0  0
    2.4659   -0.2981   -0.9580 C   0  0  0  0  0  0  0  0  0  0  0  0
    2.4953    1.8853    0.0853 C   0  0  0  0  0  0  0  0  0  0  0  0
    2.3306    2.7263    0.9587 O   0  0  0  0  0  0  0  0  0  0  0  0
   -1.2788   -2.6558    1.5524 H   0  0  0  0  0  0  0  0  0  0  0  0
   -2.2655   -3.1863    0.1590 H   0  0  0  0  0  0  0  0  0  0  0  0
   -0.4939   -3.2639    0.0796 H   0  0  0  0  0  0  0  0  0  0  0  0
   -1.4089    1.6759   -2.2702 H   0  0  0  0  0  0  0  0  0  0  0  0
   -3.0922    1.3661   -1.8033 H   0  0  0  0  0  0  0  0  0  0  0  0
   -1.9789    0.0017   -2.1289 H   0  0  0  0  0  0  0  0  0  0  0  0
    0.1289    1.9181    1.4123 H   0  0  0  0  0  0  0  0  0  0  0  0
    0.9809    1.2724    2.8415 H   0  0  0  0  0  0  0  0  0  0  0  0
    1.7460   -1.0945   -1.1714 H   0  0  0  0  0  0  0  0  0  0  0  0
    2.7072    0.2264   -1.8875 H   0  0  0  0  0  0  0  0  0  0  0  0
    3.3817   -0.7408   -0.5528 H   0  0  0  0  0  0  0  0  0  0  0  0
    3.1390    2.1005   -0.7848 H   0  0  0  0  0  0  0  0  0  0  0  0
  1  2  1  0
  2  3  1  0
  3  4  2  0
  3  5  1  0
  5  6  1  0
  3  7  1  0
  7  8  1  0
  8  9  1  0
  9 10  2  0
  9 11  1  0
 11 12  1  0
 11 13  1  0
 13 14  2  0
  1 15  1  0
  1 16  1  0
  1 17  1  0
  6 18  1  0
  6 19  1  0
  6 20  1  0
  8 21  1  0
  8 22  1  0
 12 23  1  0
 12 24  1  0
 12 25  1  0
 13 26  1  0
M  END
>  <Energy>  (9) 
-107.07951424863258

>  <Real charge>  (9) 
0

>  <Mult>  (9) 
1

$$$$
mol_81 157
     RDKit          3D

 26 25  0  0  0  0  0  0  0  0999 V2000
   -2.1631    1.8513    0.3881 C   0  0  0  0  0  0  0  0  0  0  0  0
   -2.6666    0.6256   -0.1036 O   0  0  0  0  0  0  0  0  0  0  0  0
   -1.6355   -0.5997   -0.3909 P   0  0  0  0  0  5  0  0  0  0  0  0
   -0.4849   -0.2752   -1.9383 S   0  0  0  0  0  0  0  0  0  0  0  0
   -2.7201   -1.7503   -0.7905 O   0  0  0  0  0  0  0  0  0  0  0  0
   -3.9006   -1.8957   -0.0268 C   0  0  0  0  0  0  0  0  0  0  0  0
   -0.8186   -1.2286    1.4533 S   0  0  0  0  0  0  0  0  0  0  0  0
    0.9832   -1.1593    1.2257 C   0  0  0  0  0  0  0  0  0  0  0  0
    1.4619    0.2503    0.8829 C   0  0  0  0  0  0  0  0  0  0  0  0
    0.7784    1.2473    1.1393 O   0  0  0  0  0  0  0  0  0  0  0  0
    2.7154    0.3695    0.2755 N   0  0  0  0  0  0  0  0  0  0  0  0
    3.0736    1.6814   -0.2300 C   0  0  0  0  0  0  0  0  0  0  0  0
    3.7113   -0.5939    0.3378 C   0  0  0  0  0  0  0  0  0  0  0  0
    3.6431   -1.6929    0.8716 O   0  0  0  0  0  0  0  0  0  0  0  0
   -1.3450    2.2190   -0.2350 H   0  0  0  0  0  0  0  0  0  0  0  0
   -1.8332    1.7342    1.4227 H   0  0  0  0  0  0  0  0  0  0  0  0
   -2.9701    2.5885    0.3664 H   0  0  0  0  0  0  0  0  0  0  0  0
   -4.3228   -2.8843   -0.2247 H   0  0  0  0  0  0  0  0  0  0  0  0
   -3.7004   -1.8099    1.0436 H   0  0  0  0  0  0  0  0  0  0  0  0
   -4.6297   -1.1391   -0.3282 H   0  0  0  0  0  0  0  0  0  0  0  0
    1.2354   -1.8578    0.4242 H   0  0  0  0  0  0  0  0  0  0  0  0
    1.4552   -1.4755    2.1599 H   0  0  0  0  0  0  0  0  0  0  0  0
    3.3715    2.3095    0.6157 H   0  0  0  0  0  0  0  0  0  0  0  0
    3.9071    1.6177   -0.9356 H   0  0  0  0  0  0  0  0  0  0  0  0
    2.2164    2.1433   -0.7298 H   0  0  0  0  0  0  0  0  0  0  0  0
    4.6383   -0.2754   -0.1684 H   0  0  0  0  0  0  0  0  0  0  0  0
  1  2  1  0
  2  3  1  0
  3  4  2  0
  3  5  1  0
  5  6  1  0
  3  7  1  0
  7  8  1  0
  8  9  1  0
  9 10  2  0
  9 11  1  0
 11 12  1  0
 11 13  1  0
 13 14  2  0
  1 15  1  0
  1 16  1  0
  1 17  1  0
  6 18  1  0
  6 19  1  0
  6 20  1  0
  8 21  1  0
  8 22  1  0
 12 23  1  0
 12 24  1  0
 12 25  1  0
 13 26  1  0
M  END
>  <Energy>  (10) 
-107.00427795653181

>  <Real charge>  (10) 
0

>  <Mult>  (10) 
1

$$$$
mol_81 19
     RDKit          3D

 26 25  0  0  0  0  0  0  0  0999 V2000
   -0.0336   -1.8004    1.3944 C   0  0  0  0  0  0  0  0  0  0  0  0
    0.7921   -1.2654    0.3777 O   0  0  0  0  0  0  0  0  0  0  0  0
    1.8768   -0.1175    0.7630 P   0  0  0  0  0  5  0  0  0  0  0  0
    3.1328   -0.6791    2.1452 S   0  0  0  0  0  0  0  0  0  0  0  0
    2.6029    0.1008   -0.6729 O   0  0  0  0  0  0  0  0  0  0  0  0
    3.0554   -1.0274   -1.3962 C   0  0  0  0  0  0  0  0  0  0  0  0
    0.7752    1.6531    1.0917 S   0  0  0  0  0  0  0  0  0  0  0  0
    0.2101    2.1456   -0.5549 C   0  0  0  0  0  0  0  0  0  0  0  0
   -0.5908    1.0431   -1.2272 C   0  0  0  0  0  0  0  0  0  0  0  0
   -0.0540    0.3445   -2.0921 O   0  0  0  0  0  0  0  0  0  0  0  0
   -1.9225    0.8463   -0.8419 N   0  0  0  0  0  0  0  0  0  0  0  0
   -2.6234   -0.2459   -1.4956 C   0  0  0  0  0  0  0  0  0  0  0  0
   -2.5883    1.4814    0.2015 C   0  0  0  0  0  0  0  0  0  0  0  0
   -3.6839    1.1654    0.6519 O   0  0  0  0  0  0  0  0  0  0  0  0
   -0.3902   -1.0175    2.0683 H   0  0  0  0  0  0  0  0  0  0  0  0
   -0.8980   -2.2764    0.9245 H   0  0  0  0  0  0  0  0  0  0  0  0
    0.5157   -2.5575    1.9595 H   0  0  0  0  0  0  0  0  0  0  0  0
    3.6549   -0.6792   -2.2413 H   0  0  0  0  0  0  0  0  0  0  0  0
    2.2038   -1.5922   -1.7837 H   0  0  0  0  0  0  0  0  0  0  0  0
    3.6764   -1.6728   -0.7707 H   0  0  0  0  0  0  0  0  0  0  0  0
   -0.3755    3.0677   -0.5045 H   0  0  0  0  0  0  0  0  0  0  0  0
    1.0832    2.3683   -1.1773 H   0  0  0  0  0  0  0  0  0  0  0  0
   -3.7043   -0.1877   -1.3405 H   0  0  0  0  0  0  0  0  0  0  0  0
   -2.2534   -1.1905   -1.0844 H   0  0  0  0  0  0  0  0  0  0  0  0
   -2.4239   -0.2306   -2.5719 H   0  0  0  0  0  0  0  0  0  0  0  0
   -2.0377    2.3239    0.6389 H   0  0  0  0  0  0  0  0  0  0  0  0
  1  2  1  0
  2  3  1  0
  3  4  2  0
  3  5  1  0
  5  6  1  0
  3  7  1  0
  7  8  1  0
  8  9  1  0
  9 10  2  0
  9 11  1  0
 11 12  1  0
 11 13  1  0
 13 14  2  0
  1 15  1  0
  1 16  1  0
  1 17  1  0
  6 18  1  0
  6 19  1  0
  6 20  1  0
  8 21  1  0
  8 22  1  0
 12 23  1  0
 12 24  1  0
 12 25  1  0
 13 26  1  0
M  END
>  <Energy>  (11) 
-106.98839653482838

>  <Real charge>  (11) 
0

>  <Mult>  (11) 
1

$$$$
mol_81 145
     RDKit          3D

 26 25  0  0  0  0  0  0  0  0999 V2000
   -3.5059    2.7516    0.1209 C   0  0  0  0  0  0  0  0  0  0  0  0
   -2.3365    2.3829    0.8268 O   0  0  0  0  0  0  0  0  0  0  0  0
   -1.5378    1.0233    0.4090 P   0  0  0  0  0  5  0  0  0  0  0  0
   -0.9559    1.1049   -1.4577 S   0  0  0  0  0  0  0  0  0  0  0  0
   -2.7300   -0.0468    0.6820 O   0  0  0  0  0  0  0  0  0  0  0  0
   -2.4563   -1.4301    0.5903 C   0  0  0  0  0  0  0  0  0  0  0  0
   -0.1134    0.8191    1.9559 S   0  0  0  0  0  0  0  0  0  0  0  0
    1.4698    0.5483    1.1195 C   0  0  0  0  0  0  0  0  0  0  0  0
    1.4813   -0.7262    0.2801 C   0  0  0  0  0  0  0  0  0  0  0  0
    0.6090   -1.5899    0.4046 O   0  0  0  0  0  0  0  0  0  0  0  0
    2.5493   -0.8808   -0.6132 N   0  0  0  0  0  0  0  0  0  0  0  0
    2.5083   -2.0398   -1.4869 C   0  0  0  0  0  0  0  0  0  0  0  0
    3.7492   -0.1804   -0.5699 C   0  0  0  0  0  0  0  0  0  0  0  0
    4.7707   -0.4618   -1.1858 O   0  0  0  0  0  0  0  0  0  0  0  0
   -4.0777    3.4479    0.7399 H   0  0  0  0  0  0  0  0  0  0  0  0
   -3.2352    3.2577   -0.8091 H   0  0  0  0  0  0  0  0  0  0  0  0
   -4.1347    1.8845   -0.0966 H   0  0  0  0  0  0  0  0  0  0  0  0
   -3.4041   -1.9726    0.6409 H   0  0  0  0  0  0  0  0  0  0  0  0
   -1.9721   -1.6726   -0.3581 H   0  0  0  0  0  0  0  0  0  0  0  0
   -1.8347   -1.7471    1.4305 H   0  0  0  0  0  0  0  0  0  0  0  0
    2.2468    0.4677    1.8854 H   0  0  0  0  0  0  0  0  0  0  0  0
    1.6719    1.4180    0.4886 H   0  0  0  0  0  0  0  0  0  0  0  0
    1.4839   -2.2356   -1.8187 H   0  0  0  0  0  0  0  0  0  0  0  0
    3.1409   -1.8911   -2.3671 H   0  0  0  0  0  0  0  0  0  0  0  0
    2.8730   -2.9079   -0.9283 H   0  0  0  0  0  0  0  0  0  0  0  0
    3.7404    0.6767    0.1172 H   0  0  0  0  0  0  0  0  0  0  0  0
  1  2  1  0
  2  3  1  0
  3  4  2  0
  3  5  1  0
  5  6  1  0
  3  7  1  0
  7  8  1  0
  8  9  1  0
  9 10  2  0
  9 11  1  0
 11 12  1  0
 11 13  1  0
 13 14  2  0
  1 15  1  0
  1 16  1  0
  1 17  1  0
  6 18  1  0
  6 19  1  0
  6 20  1  0
  8 21  1  0
  8 22  1  0
 12 23  1  0
 12 24  1  0
 12 25  1  0
 13 26  1  0
M  END
>  <Energy>  (12) 
-106.94376444832938

>  <Real charge>  (12) 
0

>  <Mult>  (12) 
1

$$$$
mol_81 415
     RDKit          3D

 26 25  0  0  0  0  0  0  0  0999 V2000
   -1.1050   -2.1281    1.1842 C   0  0  0  0  0  0  0  0  0  0  0  0
   -0.5624   -0.8230    1.2523 O   0  0  0  0  0  0  0  0  0  0  0  0
   -1.5525    0.4553    1.0866 P   0  0  0  0  0  5  0  0  0  0  0  0
   -2.7208    0.6824    2.6308 S   0  0  0  0  0  0  0  0  0  0  0  0
   -2.3447    0.0345   -0.2672 O   0  0  0  0  0  0  0  0  0  0  0  0
   -3.3879    0.8634   -0.7416 C   0  0  0  0  0  0  0  0  0  0  0  0
   -0.2752    2.0552    0.5694 S   0  0  0  0  0  0  0  0  0  0  0  0
    0.4011    1.5904   -1.0423 C   0  0  0  0  0  0  0  0  0  0  0  0
    1.0558    0.2199   -1.0095 C   0  0  0  0  0  0  0  0  0  0  0  0
    0.5219   -0.7134   -1.6174 O   0  0  0  0  0  0  0  0  0  0  0  0
    2.2655    0.0674   -0.3252 N   0  0  0  0  0  0  0  0  0  0  0  0
    2.8155   -1.2751   -0.2690 C   0  0  0  0  0  0  0  0  0  0  0  0
    3.1017    1.0929    0.1036 C   0  0  0  0  0  0  0  0  0  0  0  0
    4.2602    0.9622    0.4836 O   0  0  0  0  0  0  0  0  0  0  0  0
   -0.3314   -2.8399    1.4835 H   0  0  0  0  0  0  0  0  0  0  0  0
   -1.9582   -2.2366    1.8577 H   0  0  0  0  0  0  0  0  0  0  0  0
   -1.4078   -2.3554    0.1589 H   0  0  0  0  0  0  0  0  0  0  0  0
   -3.1428    1.9212   -0.6161 H   0  0  0  0  0  0  0  0  0  0  0  0
   -3.5339    0.6625   -1.8060 H   0  0  0  0  0  0  0  0  0  0  0  0
   -4.3152    0.6308   -0.2120 H   0  0  0  0  0  0  0  0  0  0  0  0
   -0.4216    1.5616   -1.7647 H   0  0  0  0  0  0  0  0  0  0  0  0
    1.1045    2.3446   -1.4048 H   0  0  0  0  0  0  0  0  0  0  0  0
    3.3539   -1.4679   -1.2025 H   0  0  0  0  0  0  0  0  0  0  0  0
    2.0179   -2.0163   -0.1597 H   0  0  0  0  0  0  0  0  0  0  0  0
    3.5092   -1.3813    0.5705 H   0  0  0  0  0  0  0  0  0  0  0  0
    2.6524    2.0926    0.0475 H   0  0  0  0  0  0  0  0  0  0  0  0
  1  2  1  0
  2  3  1  0
  3  4  2  0
  3  5  1  0
  5  6  1  0
  3  7  1  0
  7  8  1  0
  8  9  1  0
  9 10  2  0
  9 11  1  0
 11 12  1  0
 11 13  1  0
 13 14  2  0
  1 15  1  0
  1 16  1  0
  1 17  1  0
  6 18  1  0
  6 19  1  0
  6 20  1  0
  8 21  1  0
  8 22  1  0
 12 23  1  0
 12 24  1  0
 12 25  1  0
 13 26  1  0
M  END
>  <Energy>  (13) 
-106.92305298454035

>  <Real charge>  (13) 
0

>  <Mult>  (13) 
1

$$$$
mol_81 105
     RDKit          3D

 26 25  0  0  0  0  0  0  0  0999 V2000
   -3.9615   -1.1039    1.2126 C   0  0  0  0  0  0  0  0  0  0  0  0
   -3.1244   -1.1130    0.0712 O   0  0  0  0  0  0  0  0  0  0  0  0
   -1.5697   -0.6469    0.2163 P   0  0  0  0  0  5  0  0  0  0  0  0
   -0.6245   -1.6548    1.5998 S   0  0  0  0  0  0  0  0  0  0  0  0
   -1.7851    0.9041    0.6426 O   0  0  0  0  0  0  0  0  0  0  0  0
   -2.3936    1.8018   -0.2633 C   0  0  0  0  0  0  0  0  0  0  0  0
   -0.7979   -0.7391   -1.7517 S   0  0  0  0  0  0  0  0  0  0  0  0
    0.9987   -0.8529   -1.5264 C   0  0  0  0  0  0  0  0  0  0  0  0
    1.5485    0.2542   -0.6332 C   0  0  0  0  0  0  0  0  0  0  0  0
    0.9279    1.3048   -0.4564 O   0  0  0  0  0  0  0  0  0  0  0  0
    2.8077    0.0366   -0.0630 N   0  0  0  0  0  0  0  0  0  0  0  0
    3.2684    1.0217    0.8989 C   0  0  0  0  0  0  0  0  0  0  0  0
    3.7638   -0.8502   -0.5436 C   0  0  0  0  0  0  0  0  0  0  0  0
    4.9494   -0.8694   -0.2333 O   0  0  0  0  0  0  0  0  0  0  0  0
   -5.0014   -1.0672    0.8778 H   0  0  0  0  0  0  0  0  0  0  0  0
   -3.7685   -0.2322    1.8433 H   0  0  0  0  0  0  0  0  0  0  0  0
   -3.8142   -2.0213    1.7879 H   0  0  0  0  0  0  0  0  0  0  0  0
   -2.7487    2.6710    0.2964 H   0  0  0  0  0  0  0  0  0  0  0  0
   -3.2473    1.3403   -0.7663 H   0  0  0  0  0  0  0  0  0  0  0  0
   -1.6646    2.1404   -1.0032 H   0  0  0  0  0  0  0  0  0  0  0  0
    1.4767   -0.7816   -2.5077 H   0  0  0  0  0  0  0  0  0  0  0  0
    1.2132   -1.8324   -1.0913 H   0  0  0  0  0  0  0  0  0  0  0  0
    4.0389    0.5993    1.5509 H   0  0  0  0  0  0  0  0  0  0  0  0
    2.4369    1.3740    1.5172 H   0  0  0  0  0  0  0  0  0  0  0  0
    3.6908    1.8709    0.3520 H   0  0  0  0  0  0  0  0  0  0  0  0
    3.3806   -1.5545   -1.2948 H   0  0  0  0  0  0  0  0  0  0  0  0
  1  2  1  0
  2  3  1  0
  3  4  2  0
  3  5  1  0
  5  6  1  0
  3  7  1  0
  7  8  1  0
  8  9  1  0
  9 10  2  0
  9 11  1  0
 11 12  1  0
 11 13  1  0
 13 14  2  0
  1 15  1  0
  1 16  1  0
  1 17  1  0
  6 18  1  0
  6 19  1  0
  6 20  1  0
  8 21  1  0
  8 22  1  0
 12 23  1  0
 12 24  1  0
 12 25  1  0
 13 26  1  0
M  END
>  <Energy>  (14) 
-106.92017270004051

>  <Real charge>  (14) 
0

>  <Mult>  (14) 
1

$$$$
mol_81 204
     RDKit          3D

 26 25  0  0  0  0  0  0  0  0999 V2000
   -1.7220    2.4517    0.4971 C   0  0  0  0  0  0  0  0  0  0  0  0
   -1.4153    1.0941    0.7586 O   0  0  0  0  0  0  0  0  0  0  0  0
   -2.0971   -0.0547   -0.1684 P   0  0  0  0  0  5  0  0  0  0  0  0
   -4.0452   -0.0392   -0.0473 S   0  0  0  0  0  0  0  0  0  0  0  0
   -1.4421   -1.3439    0.5840 O   0  0  0  0  0  0  0  0  0  0  0  0
   -1.8467   -2.6440    0.1968 C   0  0  0  0  0  0  0  0  0  0  0  0
   -1.1812    0.0291   -2.0665 S   0  0  0  0  0  0  0  0  0  0  0  0
    0.5471   -0.4108   -1.7048 C   0  0  0  0  0  0  0  0  0  0  0  0
    1.1792    0.5992   -0.7517 C   0  0  0  0  0  0  0  0  0  0  0  0
    1.0082    1.8139   -0.8968 O   0  0  0  0  0  0  0  0  0  0  0  0
    1.9755    0.0958    0.2761 N   0  0  0  0  0  0  0  0  0  0  0  0
    2.3252    1.0187    1.3384 C   0  0  0  0  0  0  0  0  0  0  0  0
    2.7809   -1.0219    0.1207 C   0  0  0  0  0  0  0  0  0  0  0  0
    2.7853   -1.8028   -0.8217 O   0  0  0  0  0  0  0  0  0  0  0  0
   -0.9268    3.0743    0.9151 H   0  0  0  0  0  0  0  0  0  0  0  0
   -1.7930    2.6453   -0.5761 H   0  0  0  0  0  0  0  0  0  0  0  0
   -2.6635    2.7173    0.9843 H   0  0  0  0  0  0  0  0  0  0  0  0
   -2.0214   -2.7034   -0.8805 H   0  0  0  0  0  0  0  0  0  0  0  0
   -1.0521   -3.3466    0.4610 H   0  0  0  0  0  0  0  0  0  0  0  0
   -2.7544   -2.9241    0.7372 H   0  0  0  0  0  0  0  0  0  0  0  0
    0.5211   -1.4131   -1.2760 H   0  0  0  0  0  0  0  0  0  0  0  0
    1.1239   -0.4285   -2.6335 H   0  0  0  0  0  0  0  0  0  0  0  0
    3.1460    1.6563    0.9940 H   0  0  0  0  0  0  0  0  0  0  0  0
    2.6513    0.4720    2.2283 H   0  0  0  0  0  0  0  0  0  0  0  0
    1.4674    1.6471    1.5970 H   0  0  0  0  0  0  0  0  0  0  0  0
    3.4495   -1.1817    0.9839 H   0  0  0  0  0  0  0  0  0  0  0  0
  1  2  1  0
  2  3  1  0
  3  4  2  0
  3  5  1  0
  5  6  1  0
  3  7  1  0
  7  8  1  0
  8  9  1  0
  9 10  2  0
  9 11  1  0
 11 12  1  0
 11 13  1  0
 13 14  2  0
  1 15  1  0
  1 16  1  0
  1 17  1  0
  6 18  1  0
  6 19  1  0
  6 20  1  0
  8 21  1  0
  8 22  1  0
 12 23  1  0
 12 24  1  0
 12 25  1  0
 13 26  1  0
M  END
>  <Energy>  (15) 
-106.76163317386501

>  <Real charge>  (15) 
0

>  <Mult>  (15) 
1

$$$$
