mol_30 282
     RDKit          3D

 29 28  0  0  0  0  0  0  0  0999 V2000
   -5.2334    0.3315   -0.4217 C   0  0  0  0  0  0  0  0  0  0  0  0
   -3.8477    0.4433   -1.0372 C   0  0  0  0  0  0  0  0  0  0  0  0
   -2.7525    0.1991    0.0008 C   0  0  0  0  0  0  0  0  0  0  0  0
   -1.3602    0.3125   -0.6223 C   0  0  0  0  0  0  0  0  0  0  0  0
   -0.2642    0.0681    0.4163 C   0  0  0  0  0  0  0  0  0  0  0  0
    1.1276    0.1815   -0.2065 C   0  0  0  0  0  0  0  0  0  0  0  0
    2.2226   -0.0625    0.8304 C   0  0  0  0  0  0  0  0  0  0  0  0
    3.6043    0.0464    0.2289 C   0  0  0  0  0  0  0  0  0  0  0  0
    3.8534    0.2976   -0.9413 O   0  0  0  0  0  0  0  0  0  0  0  0
    4.5375   -0.1801    1.1975 O   0  0  0  0  0  0  0  0  0  0  0  0
    5.8857   -0.1007    0.7334 C   0  0  0  0  0  0  0  0  0  0  0  0
   -5.3685    1.0677    0.3770 H   0  0  0  0  0  0  0  0  0  0  0  0
   -6.0010    0.5096   -1.1814 H   0  0  0  0  0  0  0  0  0  0  0  0
   -5.3966   -0.6660   -0.0012 H   0  0  0  0  0  0  0  0  0  0  0  0
   -3.7288    1.4405   -1.4765 H   0  0  0  0  0  0  0  0  0  0  0  0
   -3.7567   -0.2836   -1.8527 H   0  0  0  0  0  0  0  0  0  0  0  0
   -2.8506    0.9261    0.8162 H   0  0  0  0  0  0  0  0  0  0  0  0
   -2.8785   -0.7980    0.4401 H   0  0  0  0  0  0  0  0  0  0  0  0
   -1.2344    1.3096   -1.0614 H   0  0  0  0  0  0  0  0  0  0  0  0
   -1.2624   -0.4147   -1.4376 H   0  0  0  0  0  0  0  0  0  0  0  0
   -0.3621    0.7953    1.2316 H   0  0  0  0  0  0  0  0  0  0  0  0
   -0.3900   -0.9290    0.8554 H   0  0  0  0  0  0  0  0  0  0  0  0
    1.2266   -0.5426   -1.0250 H   0  0  0  0  0  0  0  0  0  0  0  0
    1.2544    1.1771   -0.6499 H   0  0  0  0  0  0  0  0  0  0  0  0
    2.1130   -1.0668    1.2547 H   0  0  0  0  0  0  0  0  0  0  0  0
    2.1413    0.6768    1.6351 H   0  0  0  0  0  0  0  0  0  0  0  0
    6.0724   -0.8586   -0.0339 H   0  0  0  0  0  0  0  0  0  0  0  0
    6.5479   -0.2964    1.5813 H   0  0  0  0  0  0  0  0  0  0  0  0
    6.1009    0.9017    0.3501 H   0  0  0  0  0  0  0  0  0  0  0  0
  1  2  1  0
  2  3  1  0
  3  4  1  0
  4  5  1  0
  5  6  1  0
  6  7  1  0
  7  8  1  0
  8  9  2  0
  8 10  1  0
 10 11  1  0
  1 12  1  0
  1 13  1  0
  1 14  1  0
  2 15  1  0
  2 16  1  0
  3 17  1  0
  3 18  1  0
  4 19  1  0
  4 20  1  0
  5 21  1  0
  5 22  1  0
  6 23  1  0
  6 24  1  0
  7 25  1  0
  7 26  1  0
 11 27  1  0
 11 28  1  0
 11 29  1  0
M  END
>  <Energy>  (1) 
-11.24815018802499

>  <Real charge>  (1) 
0

>  <Mult>  (1) 
1

$$$$
mol_30 466
     RDKit          3D

 29 28  0  0  0  0  0  0  0  0999 V2000
   -4.7803    0.9090   -0.0728 C   0  0  0  0  0  0  0  0  0  0  0  0
   -3.7391   -0.1921   -0.1960 C   0  0  0  0  0  0  0  0  0  0  0  0
   -2.3486    0.3054    0.1978 C   0  0  0  0  0  0  0  0  0  0  0  0
   -1.3043   -0.8052    0.0724 C   0  0  0  0  0  0  0  0  0  0  0  0
    0.0878   -0.3073    0.4665 C   0  0  0  0  0  0  0  0  0  0  0  0
    1.1313   -1.4219    0.3426 C   0  0  0  0  0  0  0  0  0  0  0  0
    2.5293   -0.9613    0.7546 C   0  0  0  0  0  0  0  0  0  0  0  0
    3.1681   -0.0293   -0.2501 C   0  0  0  0  0  0  0  0  0  0  0  0
    2.7916    0.1418   -1.4006 O   0  0  0  0  0  0  0  0  0  0  0  0
    4.2529    0.5727    0.3161 O   0  0  0  0  0  0  0  0  0  0  0  0
    4.9416    1.4675   -0.5584 C   0  0  0  0  0  0  0  0  0  0  0  0
   -4.8427    1.2765    0.9565 H   0  0  0  0  0  0  0  0  0  0  0  0
   -5.7669    0.5316   -0.3592 H   0  0  0  0  0  0  0  0  0  0  0  0
   -4.5371    1.7537   -0.7253 H   0  0  0  0  0  0  0  0  0  0  0  0
   -3.7247   -0.5593   -1.2288 H   0  0  0  0  0  0  0  0  0  0  0  0
   -4.0287   -1.0338    0.4437 H   0  0  0  0  0  0  0  0  0  0  0  0
   -2.0657    1.1500   -0.4423 H   0  0  0  0  0  0  0  0  0  0  0  0
   -2.3694    0.6753    1.2302 H   0  0  0  0  0  0  0  0  0  0  0  0
   -1.2832   -1.1745   -0.9602 H   0  0  0  0  0  0  0  0  0  0  0  0
   -1.5875   -1.6496    0.7125 H   0  0  0  0  0  0  0  0  0  0  0  0
    0.3642    0.5402   -0.1713 H   0  0  0  0  0  0  0  0  0  0  0  0
    0.0660    0.0606    1.4995 H   0  0  0  0  0  0  0  0  0  0  0  0
    1.1458   -1.8054   -0.6848 H   0  0  0  0  0  0  0  0  0  0  0  0
    0.8367   -2.2566    0.9906 H   0  0  0  0  0  0  0  0  0  0  0  0
    3.1834   -1.8357    0.8457 H   0  0  0  0  0  0  0  0  0  0  0  0
    2.4813   -0.4604    1.7281 H   0  0  0  0  0  0  0  0  0  0  0  0
    5.7826    1.8985   -0.0083 H   0  0  0  0  0  0  0  0  0  0  0  0
    5.3350    0.9284   -1.4259 H   0  0  0  0  0  0  0  0  0  0  0  0
    4.2805    2.2810   -0.8733 H   0  0  0  0  0  0  0  0  0  0  0  0
  1  2  1  0
  2  3  1  0
  3  4  1  0
  4  5  1  0
  5  6  1  0
  6  7  1  0
  7  8  1  0
  8  9  2  0
  8 10  1  0
 10 11  1  0
  1 12  1  0
  1 13  1  0
  1 14  1  0
  2 15  1  0
  2 16  1  0
  3 17  1  0
  3 18  1  0
  4 19  1  0
  4 20  1  0
  5 21  1  0
  5 22  1  0
  6 23  1  0
  6 24  1  0
  7 25  1  0
  7 26  1  0
 11 27  1  0
 11 28  1  0
 11 29  1  0
M  END
>  <Energy>  (2) 
-11.231584159389019

>  <Real charge>  (2) 
0

>  <Mult>  (2) 
1

$$$$
mol_30 269
     RDKit          3D

 29 28  0  0  0  0  0  0  0  0999 V2000
   -4.2466   -1.6467    1.1862 C   0  0  0  0  0  0  0  0  0  0  0  0
   -3.4544   -0.9573    0.0868 C   0  0  0  0  0  0  0  0  0  0  0  0
   -2.0960   -0.4741    0.5941 C   0  0  0  0  0  0  0  0  0  0  0  0
   -1.3022    0.2187   -0.5148 C   0  0  0  0  0  0  0  0  0  0  0  0
    0.0576    0.7023   -0.0069 C   0  0  0  0  0  0  0  0  0  0  0  0
    0.8511    1.3948   -1.1186 C   0  0  0  0  0  0  0  0  0  0  0  0
    2.1918    1.9342   -0.6292 C   0  0  0  0  0  0  0  0  0  0  0  0
    3.1583    0.8353   -0.2656 C   0  0  0  0  0  0  0  0  0  0  0  0
    3.5005    0.5737    0.8795 O   0  0  0  0  0  0  0  0  0  0  0  0
    3.5885    0.1884   -1.3836 O   0  0  0  0  0  0  0  0  0  0  0  0
    4.5051   -0.8745   -1.1211 C   0  0  0  0  0  0  0  0  0  0  0  0
   -5.2142   -1.9840    0.8016 H   0  0  0  0  0  0  0  0  0  0  0  0
   -3.7093   -2.5207    1.5678 H   0  0  0  0  0  0  0  0  0  0  0  0
   -4.4323   -0.9650    2.0223 H   0  0  0  0  0  0  0  0  0  0  0  0
   -4.0331   -0.1080   -0.2948 H   0  0  0  0  0  0  0  0  0  0  0  0
   -3.3140   -1.6551   -0.7469 H   0  0  0  0  0  0  0  0  0  0  0  0
   -1.5230   -1.3267    0.9785 H   0  0  0  0  0  0  0  0  0  0  0  0
   -2.2419    0.2204    1.4305 H   0  0  0  0  0  0  0  0  0  0  0  0
   -1.8755    1.0712   -0.8989 H   0  0  0  0  0  0  0  0  0  0  0  0
   -1.1560   -0.4761   -1.3508 H   0  0  0  0  0  0  0  0  0  0  0  0
   -0.0891    1.3984    0.8278 H   0  0  0  0  0  0  0  0  0  0  0  0
    0.6246   -0.1526    0.3801 H   0  0  0  0  0  0  0  0  0  0  0  0
    0.2622    2.2326   -1.5114 H   0  0  0  0  0  0  0  0  0  0  0  0
    1.0051    0.6953   -1.9491 H   0  0  0  0  0  0  0  0  0  0  0  0
    2.6600    2.5548   -1.4022 H   0  0  0  0  0  0  0  0  0  0  0  0
    2.0542    2.5796    0.2461 H   0  0  0  0  0  0  0  0  0  0  0  0
    4.0338   -1.6424   -0.4994 H   0  0  0  0  0  0  0  0  0  0  0  0
    5.4116   -0.4900   -0.6433 H   0  0  0  0  0  0  0  0  0  0  0  0
    4.7828   -1.3263   -2.0774 H   0  0  0  0  0  0  0  0  0  0  0  0
  1  2  1  0
  2  3  1  0
  3  4  1  0
  4  5  1  0
  5  6  1  0
  6  7  1  0
  7  8  1  0
  8  9  2  0
  8 10  1  0
 10 11  1  0
  1 12  1  0
  1 13  1  0
  1 14  1  0
  2 15  1  0
  2 16  1  0
  3 17  1  0
  3 18  1  0
  4 19  1  0
  4 20  1  0
  5 21  1  0
  5 22  1  0
  6 23  1  0
  6 24  1  0
  7 25  1  0
  7 26  1  0
 11 27  1  0
 11 28  1  0
 11 29  1  0
M  END
>  <Energy>  (3) 
-10.81885560522775

>  <Real charge>  (3) 
0

>  <Mult>  (3) 
1

$$$$
mol_30 236
     RDKit          3D

 29 28  0  0  0  0  0  0  0  0999 V2000
   -5.1229   -0.3846    0.2827 C   0  0  0  0  0  0  0  0  0  0  0  0
   -3.7107   -0.8088    0.6531 C   0  0  0  0  0  0  0  0  0  0  0  0
   -2.6670    0.1282    0.0457 C   0  0  0  0  0  0  0  0  0  0  0  0
   -1.2478   -0.3019    0.4207 C   0  0  0  0  0  0  0  0  0  0  0  0
   -0.2033    0.6357   -0.1871 C   0  0  0  0  0  0  0  0  0  0  0  0
    1.2151    0.2060    0.1876 C   0  0  0  0  0  0  0  0  0  0  0  0
    2.2558    1.1397   -0.4182 C   0  0  0  0  0  0  0  0  0  0  0  0
    3.6453    0.7209   -0.0148 C   0  0  0  0  0  0  0  0  0  0  0  0
    4.2690    1.2144    0.9147 O   0  0  0  0  0  0  0  0  0  0  0  0
    4.0876   -0.2888   -0.8139 O   0  0  0  0  0  0  0  0  0  0  0  0
    5.3963   -0.7563   -0.4853 C   0  0  0  0  0  0  0  0  0  0  0  0
   -5.3374    0.6252    0.6467 H   0  0  0  0  0  0  0  0  0  0  0  0
   -5.2640   -0.3962   -0.8028 H   0  0  0  0  0  0  0  0  0  0  0  0
   -5.8529   -1.0682    0.7274 H   0  0  0  0  0  0  0  0  0  0  0  0
   -3.5397   -1.8336    0.3034 H   0  0  0  0  0  0  0  0  0  0  0  0
   -3.6127   -0.8178    1.7449 H   0  0  0  0  0  0  0  0  0  0  0  0
   -2.7720    0.1368   -1.0461 H   0  0  0  0  0  0  0  0  0  0  0  0
   -2.8450    1.1525    0.3954 H   0  0  0  0  0  0  0  0  0  0  0  0
   -1.1429   -0.3102    1.5125 H   0  0  0  0  0  0  0  0  0  0  0  0
   -1.0699   -1.3261    0.0709 H   0  0  0  0  0  0  0  0  0  0  0  0
   -0.3813    1.6599    0.1627 H   0  0  0  0  0  0  0  0  0  0  0  0
   -0.3080    0.6440   -1.2789 H   0  0  0  0  0  0  0  0  0  0  0  0
    1.3233    0.1930    1.2794 H   0  0  0  0  0  0  0  0  0  0  0  0
    1.3936   -0.8207   -0.1557 H   0  0  0  0  0  0  0  0  0  0  0  0
    2.1914    1.1586   -1.5123 H   0  0  0  0  0  0  0  0  0  0  0  0
    2.1013    2.1705   -0.0785 H   0  0  0  0  0  0  0  0  0  0  0  0
    5.4141   -1.1626    0.5309 H   0  0  0  0  0  0  0  0  0  0  0  0
    6.1300    0.0484   -0.5951 H   0  0  0  0  0  0  0  0  0  0  0  0
    5.6548   -1.5578   -1.1829 H   0  0  0  0  0  0  0  0  0  0  0  0
  1  2  1  0
  2  3  1  0
  3  4  1  0
  4  5  1  0
  5  6  1  0
  6  7  1  0
  7  8  1  0
  8  9  2  0
  8 10  1  0
 10 11  1  0
  1 12  1  0
  1 13  1  0
  1 14  1  0
  2 15  1  0
  2 16  1  0
  3 17  1  0
  3 18  1  0
  4 19  1  0
  4 20  1  0
  5 21  1  0
  5 22  1  0
  6 23  1  0
  6 24  1  0
  7 25  1  0
  7 26  1  0
 11 27  1  0
 11 28  1  0
 11 29  1  0
M  END
>  <Energy>  (4) 
-10.611601735105094

>  <Real charge>  (4) 
0

>  <Mult>  (4) 
1

$$$$
mol_30 369
     RDKit          3D

 29 28  0  0  0  0  0  0  0  0999 V2000
   -4.4088    0.9132    1.0715 C   0  0  0  0  0  0  0  0  0  0  0  0
   -4.0949   -0.4071    0.3850 C   0  0  0  0  0  0  0  0  0  0  0  0
   -2.8497   -0.3535   -0.5027 C   0  0  0  0  0  0  0  0  0  0  0  0
   -1.5560   -0.1202    0.2808 C   0  0  0  0  0  0  0  0  0  0  0  0
   -0.3334   -0.1817   -0.6378 C   0  0  0  0  0  0  0  0  0  0  0  0
    0.9607    0.0544    0.1418 C   0  0  0  0  0  0  0  0  0  0  0  0
    2.1813   -0.0073   -0.7747 C   0  0  0  0  0  0  0  0  0  0  0  0
    3.4681    0.2245   -0.0176 C   0  0  0  0  0  0  0  0  0  0  0  0
    3.5592    0.4383    1.1826 O   0  0  0  0  0  0  0  0  0  0  0  0
    4.5197    0.1583   -0.8838 O   0  0  0  0  0  0  0  0  0  0  0  0
    5.7916    0.3646   -0.2681 C   0  0  0  0  0  0  0  0  0  0  0  0
   -4.4956    1.7248    0.3422 H   0  0  0  0  0  0  0  0  0  0  0  0
   -5.3588    0.8393    1.6105 H   0  0  0  0  0  0  0  0  0  0  0  0
   -3.6366    1.1813    1.7984 H   0  0  0  0  0  0  0  0  0  0  0  0
   -4.9528   -0.6879   -0.2376 H   0  0  0  0  0  0  0  0  0  0  0  0
   -3.9813   -1.1932    1.1405 H   0  0  0  0  0  0  0  0  0  0  0  0
   -2.9710    0.4313   -1.2593 H   0  0  0  0  0  0  0  0  0  0  0  0
   -2.7744   -1.3048   -1.0440 H   0  0  0  0  0  0  0  0  0  0  0  0
   -1.4615   -0.8775    1.0684 H   0  0  0  0  0  0  0  0  0  0  0  0
   -1.5859    0.8587    0.7721 H   0  0  0  0  0  0  0  0  0  0  0  0
   -0.4296    0.5732   -1.4277 H   0  0  0  0  0  0  0  0  0  0  0  0
   -0.2918   -1.1612   -1.1295 H   0  0  0  0  0  0  0  0  0  0  0  0
    0.9206    1.0325    0.6376 H   0  0  0  0  0  0  0  0  0  0  0  0
    1.0566   -0.6972    0.9354 H   0  0  0  0  0  0  0  0  0  0  0  0
    2.2375   -0.9930   -1.2499 H   0  0  0  0  0  0  0  0  0  0  0  0
    2.0994    0.7606   -1.5520 H   0  0  0  0  0  0  0  0  0  0  0  0
    5.9838   -0.4080    0.4831 H   0  0  0  0  0  0  0  0  0  0  0  0
    6.5591    0.2916   -1.0436 H   0  0  0  0  0  0  0  0  0  0  0  0
    5.8443    1.3625    0.1783 H   0  0  0  0  0  0  0  0  0  0  0  0
  1  2  1  0
  2  3  1  0
  3  4  1  0
  4  5  1  0
  5  6  1  0
  6  7  1  0
  7  8  1  0
  8  9  2  0
  8 10  1  0
 10 11  1  0
  1 12  1  0
  1 13  1  0
  1 14  1  0
  2 15  1  0
  2 16  1  0
  3 17  1  0
  3 18  1  0
  4 19  1  0
  4 20  1  0
  5 21  1  0
  5 22  1  0
  6 23  1  0
  6 24  1  0
  7 25  1  0
  7 26  1  0
 11 27  1  0
 11 28  1  0
 11 29  1  0
M  END
>  <Energy>  (5) 
-10.424939083129836

>  <Real charge>  (5) 
0

>  <Mult>  (5) 
1

$$$$
mol_30 450
     RDKit          3D

 29 28  0  0  0  0  0  0  0  0999 V2000
    4.9083   -0.7230    0.5014 C   0  0  0  0  0  0  0  0  0  0  0  0
    3.4444   -1.0252    0.2239 C   0  0  0  0  0  0  0  0  0  0  0  0
    2.6269    0.2573    0.0710 C   0  0  0  0  0  0  0  0  0  0  0  0
    1.1543   -0.0512   -0.2088 C   0  0  0  0  0  0  0  0  0  0  0  0
    0.3378    1.2344   -0.3576 C   0  0  0  0  0  0  0  0  0  0  0  0
   -1.1214    0.9856   -0.7484 C   0  0  0  0  0  0  0  0  0  0  0  0
   -1.9220    0.2531    0.3278 C   0  0  0  0  0  0  0  0  0  0  0  0
   -3.3859    0.1483   -0.0339 C   0  0  0  0  0  0  0  0  0  0  0  0
   -3.8861    0.5102   -1.0891 O   0  0  0  0  0  0  0  0  0  0  0  0
   -4.0666   -0.4247    0.9999 O   0  0  0  0  0  0  0  0  0  0  0  0
   -5.4660   -0.5768    0.7589 C   0  0  0  0  0  0  0  0  0  0  0  0
    5.4741   -1.6539    0.6073 H   0  0  0  0  0  0  0  0  0  0  0  0
    5.3520   -0.1469   -0.3169 H   0  0  0  0  0  0  0  0  0  0  0  0
    5.0218   -0.1494    1.4269 H   0  0  0  0  0  0  0  0  0  0  0  0
    3.3683   -1.6265   -0.6896 H   0  0  0  0  0  0  0  0  0  0  0  0
    3.0401   -1.6291    1.0446 H   0  0  0  0  0  0  0  0  0  0  0  0
    2.7091    0.8569    0.9858 H   0  0  0  0  0  0  0  0  0  0  0  0
    3.0388    0.8594   -0.7482 H   0  0  0  0  0  0  0  0  0  0  0  0
    0.7538   -0.6577    0.6112 H   0  0  0  0  0  0  0  0  0  0  0  0
    1.0720   -0.6473   -1.1256 H   0  0  0  0  0  0  0  0  0  0  0  0
    0.3754    1.8076    0.5767 H   0  0  0  0  0  0  0  0  0  0  0  0
    0.7962    1.8625   -1.1316 H   0  0  0  0  0  0  0  0  0  0  0  0
   -1.5925    1.9560   -0.9508 H   0  0  0  0  0  0  0  0  0  0  0  0
   -1.1616    0.4225   -1.6892 H   0  0  0  0  0  0  0  0  0  0  0  0
   -1.8432    0.7952    1.2768 H   0  0  0  0  0  0  0  0  0  0  0  0
   -1.5398   -0.7640    0.4614 H   0  0  0  0  0  0  0  0  0  0  0  0
   -5.6380   -1.2328   -0.1001 H   0  0  0  0  0  0  0  0  0  0  0  0
   -5.9135   -1.0396    1.6428 H   0  0  0  0  0  0  0  0  0  0  0  0
   -5.9367    0.3990    0.6033 H   0  0  0  0  0  0  0  0  0  0  0  0
  1  2  1  0
  2  3  1  0
  3  4  1  0
  4  5  1  0
  5  6  1  0
  6  7  1  0
  7  8  1  0
  8  9  2  0
  8 10  1  0
 10 11  1  0
  1 12  1  0
  1 13  1  0
  1 14  1  0
  2 15  1  0
  2 16  1  0
  3 17  1  0
  3 18  1  0
  4 19  1  0
  4 20  1  0
  5 21  1  0
  5 22  1  0
  6 23  1  0
  6 24  1  0
  7 25  1  0
  7 26  1  0
 11 27  1  0
 11 28  1  0
 11 29  1  0
M  END
>  <Energy>  (6) 
-10.420520790967805

>  <Real charge>  (6) 
0

>  <Mult>  (6) 
1

$$$$
mol_30 430
     RDKit          3D

 29 28  0  0  0  0  0  0  0  0999 V2000
   -4.2199   -0.9344   -0.6141 C   0  0  0  0  0  0  0  0  0  0  0  0
   -3.8303    0.1084    0.4222 C   0  0  0  0  0  0  0  0  0  0  0  0
   -2.3395    0.1003    0.7668 C   0  0  0  0  0  0  0  0  0  0  0  0
   -1.4440    0.5086   -0.4052 C   0  0  0  0  0  0  0  0  0  0  0  0
    0.0244    0.5869    0.0207 C   0  0  0  0  0  0  0  0  0  0  0  0
    0.9213    0.9951   -1.1523 C   0  0  0  0  0  0  0  0  0  0  0  0
    2.3920    1.1068   -0.7513 C   0  0  0  0  0  0  0  0  0  0  0  0
    3.0450   -0.2350   -0.5076 C   0  0  0  0  0  0  0  0  0  0  0  0
    2.5945   -1.3180   -0.8524 O   0  0  0  0  0  0  0  0  0  0  0  0
    4.2348   -0.0503    0.1329 O   0  0  0  0  0  0  0  0  0  0  0  0
    4.9439   -1.2610    0.3992 C   0  0  0  0  0  0  0  0  0  0  0  0
   -3.7718   -0.7191   -1.5884 H   0  0  0  0  0  0  0  0  0  0  0  0
   -5.3068   -0.9452   -0.7452 H   0  0  0  0  0  0  0  0  0  0  0  0
   -3.9066   -1.9355   -0.3016 H   0  0  0  0  0  0  0  0  0  0  0  0
   -4.1264    1.1028    0.0684 H   0  0  0  0  0  0  0  0  0  0  0  0
   -4.3993   -0.0836    1.3397 H   0  0  0  0  0  0  0  0  0  0  0  0
   -2.0503   -0.8954    1.1244 H   0  0  0  0  0  0  0  0  0  0  0  0
   -2.1774    0.7946    1.6006 H   0  0  0  0  0  0  0  0  0  0  0  0
   -1.5416   -0.2151   -1.2221 H   0  0  0  0  0  0  0  0  0  0  0  0
   -1.7664    1.4828   -0.7922 H   0  0  0  0  0  0  0  0  0  0  0  0
    0.3397   -0.3856    0.4158 H   0  0  0  0  0  0  0  0  0  0  0  0
    0.1317    1.3153    0.8337 H   0  0  0  0  0  0  0  0  0  0  0  0
    0.5899    1.9707   -1.5288 H   0  0  0  0  0  0  0  0  0  0  0  0
    0.8060    0.2796   -1.9754 H   0  0  0  0  0  0  0  0  0  0  0  0
    2.9486    1.5951   -1.5592 H   0  0  0  0  0  0  0  0  0  0  0  0
    2.4830    1.7192    0.1529 H   0  0  0  0  0  0  0  0  0  0  0  0
    5.8716   -1.0032    0.9175 H   0  0  0  0  0  0  0  0  0  0  0  0
    5.1993   -1.7690   -0.5360 H   0  0  0  0  0  0  0  0  0  0  0  0
    4.3548   -1.9158    1.0490 H   0  0  0  0  0  0  0  0  0  0  0  0
  1  2  1  0
  2  3  1  0
  3  4  1  0
  4  5  1  0
  5  6  1  0
  6  7  1  0
  7  8  1  0
  8  9  2  0
  8 10  1  0
 10 11  1  0
  1 12  1  0
  1 13  1  0
  1 14  1  0
  2 15  1  0
  2 16  1  0
  3 17  1  0
  3 18  1  0
  4 19  1  0
  4 20  1  0
  5 21  1  0
  5 22  1  0
  6 23  1  0
  6 24  1  0
  7 25  1  0
  7 26  1  0
 11 27  1  0
 11 28  1  0
 11 29  1  0
M  END
>  <Energy>  (7) 
-10.410809674662769

>  <Real charge>  (7) 
0

>  <Mult>  (7) 
1

$$$$
mol_30 382
     RDKit          3D

 29 28  0  0  0  0  0  0  0  0999 V2000
   -4.5426   -0.1577    0.1487 C   0  0  0  0  0  0  0  0  0  0  0  0
   -3.6511    1.0474    0.4057 C   0  0  0  0  0  0  0  0  0  0  0  0
   -2.2303    0.6761    0.8356 C   0  0  0  0  0  0  0  0  0  0  0  0
   -1.4353   -0.0441   -0.2558 C   0  0  0  0  0  0  0  0  0  0  0  0
    0.0086   -0.2969    0.1860 C   0  0  0  0  0  0  0  0  0  0  0  0
    0.8032   -1.0235   -0.9037 C   0  0  0  0  0  0  0  0  0  0  0  0
    2.2435   -1.3125   -0.4815 C   0  0  0  0  0  0  0  0  0  0  0  0
    3.1120   -0.0753   -0.4461 C   0  0  0  0  0  0  0  0  0  0  0  0
    2.8382    1.0004   -0.9584 O   0  0  0  0  0  0  0  0  0  0  0  0
    4.2679   -0.3521    0.2227 O   0  0  0  0  0  0  0  0  0  0  0  0
    5.1708    0.7516    0.3011 C   0  0  0  0  0  0  0  0  0  0  0  0
   -5.5663    0.1703   -0.0585 H   0  0  0  0  0  0  0  0  0  0  0  0
   -4.1992   -0.7342   -0.7151 H   0  0  0  0  0  0  0  0  0  0  0  0
   -4.5690   -0.8201    1.0197 H   0  0  0  0  0  0  0  0  0  0  0  0
   -4.1059    1.6537    1.1982 H   0  0  0  0  0  0  0  0  0  0  0  0
   -3.6175    1.6745   -0.4928 H   0  0  0  0  0  0  0  0  0  0  0  0
   -1.7048    1.5985    1.1124 H   0  0  0  0  0  0  0  0  0  0  0  0
   -2.2701    0.0528    1.7372 H   0  0  0  0  0  0  0  0  0  0  0  0
   -1.4380    0.5592   -1.1715 H   0  0  0  0  0  0  0  0  0  0  0  0
   -1.9097   -1.0023   -0.4954 H   0  0  0  0  0  0  0  0  0  0  0  0
    0.4876    0.6591    0.4268 H   0  0  0  0  0  0  0  0  0  0  0  0
    0.0103   -0.8984    1.1033 H   0  0  0  0  0  0  0  0  0  0  0  0
    0.7900   -0.4346   -1.8288 H   0  0  0  0  0  0  0  0  0  0  0  0
    0.3094   -1.9776   -1.1258 H   0  0  0  0  0  0  0  0  0  0  0  0
    2.2510   -1.7841    0.5076 H   0  0  0  0  0  0  0  0  0  0  0  0
    2.6965   -2.0048   -1.2001 H   0  0  0  0  0  0  0  0  0  0  0  0
    6.0538    0.4279    0.8590 H   0  0  0  0  0  0  0  0  0  0  0  0
    5.4874    1.0595   -0.7003 H   0  0  0  0  0  0  0  0  0  0  0  0
    4.7098    1.5871    0.8372 H   0  0  0  0  0  0  0  0  0  0  0  0
  1  2  1  0
  2  3  1  0
  3  4  1  0
  4  5  1  0
  5  6  1  0
  6  7  1  0
  7  8  1  0
  8  9  2  0
  8 10  1  0
 10 11  1  0
  1 12  1  0
  1 13  1  0
  1 14  1  0
  2 15  1  0
  2 16  1  0
  3 17  1  0
  3 18  1  0
  4 19  1  0
  4 20  1  0
  5 21  1  0
  5 22  1  0
  6 23  1  0
  6 24  1  0
  7 25  1  0
  7 26  1  0
 11 27  1  0
 11 28  1  0
 11 29  1  0
M  END
>  <Energy>  (8) 
-10.406725231238198

>  <Real charge>  (8) 
0

>  <Mult>  (8) 
1

$$$$
mol_30 320
     RDKit          3D

 29 28  0  0  0  0  0  0  0  0999 V2000
   -4.2867    1.0625    0.7574 C   0  0  0  0  0  0  0  0  0  0  0  0
   -3.5707    0.4167   -0.4182 C   0  0  0  0  0  0  0  0  0  0  0  0
   -2.0668    0.3032   -0.1646 C   0  0  0  0  0  0  0  0  0  0  0  0
   -1.3534   -0.3507   -1.3501 C   0  0  0  0  0  0  0  0  0  0  0  0
    0.1706   -0.3847   -1.1989 C   0  0  0  0  0  0  0  0  0  0  0  0
    0.6472   -1.2923   -0.0596 C   0  0  0  0  0  0  0  0  0  0  0  0
    2.1710   -1.4145   -0.0124 C   0  0  0  0  0  0  0  0  0  0  0  0
    2.8527   -0.1553    0.4732 C   0  0  0  0  0  0  0  0  0  0  0  0
    2.3042    0.7731    1.0494 O   0  0  0  0  0  0  0  0  0  0  0  0
    4.1862   -0.2262    0.1963 O   0  0  0  0  0  0  0  0  0  0  0  0
    4.9297    0.9135    0.6298 C   0  0  0  0  0  0  0  0  0  0  0  0
   -3.9073    2.0728    0.9408 H   0  0  0  0  0  0  0  0  0  0  0  0
   -4.1523    0.4735    1.6703 H   0  0  0  0  0  0  0  0  0  0  0  0
   -5.3599    1.1343    0.5545 H   0  0  0  0  0  0  0  0  0  0  0  0
   -3.9946   -0.5787   -0.5950 H   0  0  0  0  0  0  0  0  0  0  0  0
   -3.7528    1.0122   -1.3204 H   0  0  0  0  0  0  0  0  0  0  0  0
   -1.9012   -0.2846    0.7451 H   0  0  0  0  0  0  0  0  0  0  0  0
   -1.6481    1.3013    0.0120 H   0  0  0  0  0  0  0  0  0  0  0  0
   -1.5928    0.2078   -2.2636 H   0  0  0  0  0  0  0  0  0  0  0  0
   -1.7322   -1.3697   -1.4953 H   0  0  0  0  0  0  0  0  0  0  0  0
    0.5436    0.6357   -1.0538 H   0  0  0  0  0  0  0  0  0  0  0  0
    0.5979   -0.7443   -2.1433 H   0  0  0  0  0  0  0  0  0  0  0  0
    0.2239   -2.2939   -0.2031 H   0  0  0  0  0  0  0  0  0  0  0  0
    0.2773   -0.9224    0.9029 H   0  0  0  0  0  0  0  0  0  0  0  0
    2.5528   -1.6680   -1.0078 H   0  0  0  0  0  0  0  0  0  0  0  0
    2.4455   -2.2186    0.6797 H   0  0  0  0  0  0  0  0  0  0  0  0
    5.9767    0.7596    0.3544 H   0  0  0  0  0  0  0  0  0  0  0  0
    4.8696    1.0190    1.7175 H   0  0  0  0  0  0  0  0  0  0  0  0
    4.5699    1.8188    0.1309 H   0  0  0  0  0  0  0  0  0  0  0  0
  1  2  1  0
  2  3  1  0
  3  4  1  0
  4  5  1  0
  5  6  1  0
  6  7  1  0
  7  8  1  0
  8  9  2  0
  8 10  1  0
 10 11  1  0
  1 12  1  0
  1 13  1  0
  1 14  1  0
  2 15  1  0
  2 16  1  0
  3 17  1  0
  3 18  1  0
  4 19  1  0
  4 20  1  0
  5 21  1  0
  5 22  1  0
  6 23  1  0
  6 24  1  0
  7 25  1  0
  7 26  1  0
 11 27  1  0
 11 28  1  0
 11 29  1  0
M  END
>  <Energy>  (9) 
-10.398139712784646

>  <Real charge>  (9) 
0

>  <Mult>  (9) 
1

$$$$
mol_30 300
     RDKit          3D

 29 28  0  0  0  0  0  0  0  0999 V2000
   -4.4880    0.1178   -1.2068 C   0  0  0  0  0  0  0  0  0  0  0  0
   -3.7391   -0.3502    0.0309 C   0  0  0  0  0  0  0  0  0  0  0  0
   -2.3109    0.1960    0.0616 C   0  0  0  0  0  0  0  0  0  0  0  0
   -1.5622   -0.2820    1.3077 C   0  0  0  0  0  0  0  0  0  0  0  0
   -0.1642    0.3269    1.4494 C   0  0  0  0  0  0  0  0  0  0  0  0
    0.8058   -0.1140    0.3517 C   0  0  0  0  0  0  0  0  0  0  0  0
    2.2123    0.4278    0.6057 C   0  0  0  0  0  0  0  0  0  0  0  0
    3.1832    0.0056   -0.4723 C   0  0  0  0  0  0  0  0  0  0  0  0
    2.9138   -0.6920   -1.4394 O   0  0  0  0  0  0  0  0  0  0  0  0
    4.4147    0.5245   -0.1991 O   0  0  0  0  0  0  0  0  0  0  0  0
    5.4136    0.1840   -1.1613 C   0  0  0  0  0  0  0  0  0  0  0  0
   -4.5533    1.2101   -1.2362 H   0  0  0  0  0  0  0  0  0  0  0  0
   -3.9881   -0.2216   -2.1196 H   0  0  0  0  0  0  0  0  0  0  0  0
   -5.5063   -0.2836   -1.2080 H   0  0  0  0  0  0  0  0  0  0  0  0
   -3.7188   -1.4461    0.0463 H   0  0  0  0  0  0  0  0  0  0  0  0
   -4.2829   -0.0227    0.9246 H   0  0  0  0  0  0  0  0  0  0  0  0
   -1.7840   -0.1302   -0.8420 H   0  0  0  0  0  0  0  0  0  0  0  0
   -2.3369    1.2923    0.0457 H   0  0  0  0  0  0  0  0  0  0  0  0
   -2.1429   -0.0133    2.1989 H   0  0  0  0  0  0  0  0  0  0  0  0
   -1.4875   -1.3762    1.2982 H   0  0  0  0  0  0  0  0  0  0  0  0
   -0.2391    1.4211    1.4603 H   0  0  0  0  0  0  0  0  0  0  0  0
    0.2401    0.0287    2.4248 H   0  0  0  0  0  0  0  0  0  0  0  0
    0.8361   -1.2095    0.3025 H   0  0  0  0  0  0  0  0  0  0  0  0
    0.4564    0.2381   -0.6257 H   0  0  0  0  0  0  0  0  0  0  0  0
    2.1868    1.5230    0.6328 H   0  0  0  0  0  0  0  0  0  0  0  0
    2.5855    0.0545    1.5658 H   0  0  0  0  0  0  0  0  0  0  0  0
    5.5563   -0.9006   -1.1984 H   0  0  0  0  0  0  0  0  0  0  0  0
    6.3546    0.6463   -0.8506 H   0  0  0  0  0  0  0  0  0  0  0  0
    5.1449    0.5747   -2.1477 H   0  0  0  0  0  0  0  0  0  0  0  0
  1  2  1  0
  2  3  1  0
  3  4  1  0
  4  5  1  0
  5  6  1  0
  6  7  1  0
  7  8  1  0
  8  9  2  0
  8 10  1  0
 10 11  1  0
  1 12  1  0
  1 13  1  0
  1 14  1  0
  2 15  1  0
  2 16  1  0
  3 17  1  0
  3 18  1  0
  4 19  1  0
  4 20  1  0
  5 21  1  0
  5 22  1  0
  6 23  1  0
  6 24  1  0
  7 25  1  0
  7 26  1  0
 11 27  1  0
 11 28  1  0
 11 29  1  0
M  END
>  <Energy>  (10) 
-10.384559153072285

>  <Real charge>  (10) 
0

>  <Mult>  (10) 
1

$$$$
mol_30 126
     RDKit          3D

 29 28  0  0  0  0  0  0  0  0999 V2000
    3.4872    2.4900   -0.5107 C   0  0  0  0  0  0  0  0  0  0  0  0
    2.4126    1.5708    0.0500 C   0  0  0  0  0  0  0  0  0  0  0  0
    2.7480    0.1009   -0.2053 C   0  0  0  0  0  0  0  0  0  0  0  0
    1.7561   -0.8711    0.4400 C   0  0  0  0  0  0  0  0  0  0  0  0
    0.3507   -0.7954   -0.1619 C   0  0  0  0  0  0  0  0  0  0  0  0
   -0.5664   -1.8657    0.4404 C   0  0  0  0  0  0  0  0  0  0  0  0
   -1.9742   -1.8299   -0.1541 C   0  0  0  0  0  0  0  0  0  0  0  0
   -2.7856   -0.6419    0.3113 C   0  0  0  0  0  0  0  0  0  0  0  0
   -2.5169    0.0723    1.2664 O   0  0  0  0  0  0  0  0  0  0  0  0
   -3.8859   -0.5054   -0.4830 O   0  0  0  0  0  0  0  0  0  0  0  0
   -4.7327    0.5851   -0.1179 C   0  0  0  0  0  0  0  0  0  0  0  0
    3.2274    3.5362   -0.3214 H   0  0  0  0  0  0  0  0  0  0  0  0
    4.4570    2.2913   -0.0433 H   0  0  0  0  0  0  0  0  0  0  0  0
    3.5925    2.3560   -1.5920 H   0  0  0  0  0  0  0  0  0  0  0  0
    2.3135    1.7493    1.1269 H   0  0  0  0  0  0  0  0  0  0  0  0
    1.4549    1.8297   -0.4137 H   0  0  0  0  0  0  0  0  0  0  0  0
    2.7969   -0.0861   -1.2850 H   0  0  0  0  0  0  0  0  0  0  0  0
    3.7461   -0.1132    0.1970 H   0  0  0  0  0  0  0  0  0  0  0  0
    2.1452   -1.8891    0.3136 H   0  0  0  0  0  0  0  0  0  0  0  0
    1.7073   -0.6838    1.5196 H   0  0  0  0  0  0  0  0  0  0  0  0
    0.4093   -0.9335   -1.2483 H   0  0  0  0  0  0  0  0  0  0  0  0
   -0.0769    0.1965    0.0163 H   0  0  0  0  0  0  0  0  0  0  0  0
   -0.1336   -2.8546    0.2450 H   0  0  0  0  0  0  0  0  0  0  0  0
   -0.6113   -1.7465    1.5297 H   0  0  0  0  0  0  0  0  0  0  0  0
   -1.9128   -1.8157   -1.2481 H   0  0  0  0  0  0  0  0  0  0  0  0
   -2.5167   -2.7315    0.1519 H   0  0  0  0  0  0  0  0  0  0  0  0
   -4.1914    1.5333   -0.1937 H   0  0  0  0  0  0  0  0  0  0  0  0
   -5.5733    0.6098   -0.8167 H   0  0  0  0  0  0  0  0  0  0  0  0
   -5.1269    0.4422    0.8931 H   0  0  0  0  0  0  0  0  0  0  0  0
  1  2  1  0
  2  3  1  0
  3  4  1  0
  4  5  1  0
  5  6  1  0
  6  7  1  0
  7  8  1  0
  8  9  2  0
  8 10  1  0
 10 11  1  0
  1 12  1  0
  1 13  1  0
  1 14  1  0
  2 15  1  0
  2 16  1  0
  3 17  1  0
  3 18  1  0
  4 19  1  0
  4 20  1  0
  5 21  1  0
  5 22  1  0
  6 23  1  0
  6 24  1  0
  7 25  1  0
  7 26  1  0
 11 27  1  0
 11 28  1  0
 11 29  1  0
M  END
>  <Energy>  (11) 
-10.378488670234084

>  <Real charge>  (11) 
0

>  <Mult>  (11) 
1

$$$$
mol_30 359
     RDKit          3D

 29 28  0  0  0  0  0  0  0  0999 V2000
    4.8700    0.5902    0.2063 C   0  0  0  0  0  0  0  0  0  0  0  0
    3.4475    0.2946   -0.2444 C   0  0  0  0  0  0  0  0  0  0  0  0
    2.7980   -0.7793    0.6293 C   0  0  0  0  0  0  0  0  0  0  0  0
    1.4053   -1.1959    0.1478 C   0  0  0  0  0  0  0  0  0  0  0  0
    0.3651   -0.0786    0.2550 C   0  0  0  0  0  0  0  0  0  0  0  0
   -1.0281   -0.5807   -0.1295 C   0  0  0  0  0  0  0  0  0  0  0  0
   -2.0686    0.5331   -0.0273 C   0  0  0  0  0  0  0  0  0  0  0  0
   -3.4503    0.0514   -0.4038 C   0  0  0  0  0  0  0  0  0  0  0  0
   -3.7374   -1.0843   -0.7536 O   0  0  0  0  0  0  0  0  0  0  0  0
   -4.3342    1.0842   -0.2931 O   0  0  0  0  0  0  0  0  0  0  0  0
   -5.6780    0.7355   -0.6279 C   0  0  0  0  0  0  0  0  0  0  0  0
    4.8871    0.9482    1.2407 H   0  0  0  0  0  0  0  0  0  0  0  0
    5.4965   -0.3051    0.1416 H   0  0  0  0  0  0  0  0  0  0  0  0
    5.3156    1.3626   -0.4282 H   0  0  0  0  0  0  0  0  0  0  0  0
    2.8677    1.2226   -0.2022 H   0  0  0  0  0  0  0  0  0  0  0  0
    3.4630   -0.0342   -1.2899 H   0  0  0  0  0  0  0  0  0  0  0  0
    2.7387   -0.4275    1.6665 H   0  0  0  0  0  0  0  0  0  0  0  0
    3.4378   -1.6707    0.6351 H   0  0  0  0  0  0  0  0  0  0  0  0
    1.4650   -1.5487   -0.8890 H   0  0  0  0  0  0  0  0  0  0  0  0
    1.0767   -2.0499    0.7531 H   0  0  0  0  0  0  0  0  0  0  0  0
    0.6388    0.7541   -0.4023 H   0  0  0  0  0  0  0  0  0  0  0  0
    0.3453    0.3084    1.2809 H   0  0  0  0  0  0  0  0  0  0  0  0
   -1.0091   -0.9755   -1.1531 H   0  0  0  0  0  0  0  0  0  0  0  0
   -1.3148   -1.4139    0.5243 H   0  0  0  0  0  0  0  0  0  0  0  0
   -2.1068    0.9104    1.0007 H   0  0  0  0  0  0  0  0  0  0  0  0
   -1.7985    1.3547   -0.7001 H   0  0  0  0  0  0  0  0  0  0  0  0
   -5.7410    0.4087   -1.6706 H   0  0  0  0  0  0  0  0  0  0  0  0
   -6.0519   -0.0415    0.0463 H   0  0  0  0  0  0  0  0  0  0  0  0
   -6.2995    1.6270   -0.5067 H   0  0  0  0  0  0  0  0  0  0  0  0
  1  2  1  0
  2  3  1  0
  3  4  1  0
  4  5  1  0
  5  6  1  0
  6  7  1  0
  7  8  1  0
  8  9  2  0
  8 10  1  0
 10 11  1  0
  1 12  1  0
  1 13  1  0
  1 14  1  0
  2 15  1  0
  2 16  1  0
  3 17  1  0
  3 18  1  0
  4 19  1  0
  4 20  1  0
  5 21  1  0
  5 22  1  0
  6 23  1  0
  6 24  1  0
  7 25  1  0
  7 26  1  0
 11 27  1  0
 11 28  1  0
 11 29  1  0
M  END
>  <Energy>  (12) 
-10.373940756673953

>  <Real charge>  (12) 
0

>  <Mult>  (12) 
1

$$$$
mol_30 113
     RDKit          3D

 29 28  0  0  0  0  0  0  0  0999 V2000
   -4.3374   -0.7633    0.7761 C   0  0  0  0  0  0  0  0  0  0  0  0
   -3.1243    0.0578    0.3659 C   0  0  0  0  0  0  0  0  0  0  0  0
   -2.4354   -0.5410   -0.8610 C   0  0  0  0  0  0  0  0  0  0  0  0
   -1.2752    0.3107   -1.3842 C   0  0  0  0  0  0  0  0  0  0  0  0
   -0.0968    0.3975   -0.4112 C   0  0  0  0  0  0  0  0  0  0  0  0
    1.0764    1.1643   -1.0318 C   0  0  0  0  0  0  0  0  0  0  0  0
    2.2600    1.2964   -0.0735 C   0  0  0  0  0  0  0  0  0  0  0  0
    3.0041   -0.0033    0.1341 C   0  0  0  0  0  0  0  0  0  0  0  0
    2.9070   -0.9984   -0.5694 O   0  0  0  0  0  0  0  0  0  0  0  0
    3.8282    0.1139    1.2145 O   0  0  0  0  0  0  0  0  0  0  0  0
    4.5925   -1.0604    1.4907 C   0  0  0  0  0  0  0  0  0  0  0  0
   -4.0501   -1.7900    1.0243 H   0  0  0  0  0  0  0  0  0  0  0  0
   -5.0785   -0.7982   -0.0288 H   0  0  0  0  0  0  0  0  0  0  0  0
   -4.8138   -0.3213    1.6568 H   0  0  0  0  0  0  0  0  0  0  0  0
   -2.4291    0.1000    1.2109 H   0  0  0  0  0  0  0  0  0  0  0  0
   -3.4416    1.0848    0.1515 H   0  0  0  0  0  0  0  0  0  0  0  0
   -2.0748   -1.5504   -0.6279 H   0  0  0  0  0  0  0  0  0  0  0  0
   -3.1712   -0.6479   -1.6679 H   0  0  0  0  0  0  0  0  0  0  0  0
   -1.6366    1.3190   -1.6200 H   0  0  0  0  0  0  0  0  0  0  0  0
   -0.9282   -0.1289   -2.3277 H   0  0  0  0  0  0  0  0  0  0  0  0
    0.2201   -0.6139   -0.1327 H   0  0  0  0  0  0  0  0  0  0  0  0
   -0.4074    0.9052    0.5088 H   0  0  0  0  0  0  0  0  0  0  0  0
    1.3934    0.6728   -1.9595 H   0  0  0  0  0  0  0  0  0  0  0  0
    0.7368    2.1713   -1.3040 H   0  0  0  0  0  0  0  0  0  0  0  0
    2.9762    2.0170   -0.4842 H   0  0  0  0  0  0  0  0  0  0  0  0
    1.9104    1.6682    0.8962 H   0  0  0  0  0  0  0  0  0  0  0  0
    5.2548   -1.2927    0.6508 H   0  0  0  0  0  0  0  0  0  0  0  0
    5.2082   -0.8641    2.3728 H   0  0  0  0  0  0  0  0  0  0  0  0
    3.9323   -1.9052    1.7104 H   0  0  0  0  0  0  0  0  0  0  0  0
  1  2  1  0
  2  3  1  0
  3  4  1  0
  4  5  1  0
  5  6  1  0
  6  7  1  0
  7  8  1  0
  8  9  2  0
  8 10  1  0
 10 11  1  0
  1 12  1  0
  1 13  1  0
  1 14  1  0
  2 15  1  0
  2 16  1  0
  3 17  1  0
  3 18  1  0
  4 19  1  0
  4 20  1  0
  5 21  1  0
  5 22  1  0
  6 23  1  0
  6 24  1  0
  7 25  1  0
  7 26  1  0
 11 27  1  0
 11 28  1  0
 11 29  1  0
M  END
>  <Energy>  (13) 
-10.366524856922874

>  <Real charge>  (13) 
0

>  <Mult>  (13) 
1

$$$$
mol_30 115
     RDKit          3D

 29 28  0  0  0  0  0  0  0  0999 V2000
    4.8162    0.3712   -0.3839 C   0  0  0  0  0  0  0  0  0  0  0  0
    3.6820   -0.6247   -0.2012 C   0  0  0  0  0  0  0  0  0  0  0  0
    2.3455    0.0833    0.0258 C   0  0  0  0  0  0  0  0  0  0  0  0
    1.2085   -0.9249    0.2049 C   0  0  0  0  0  0  0  0  0  0  0  0
   -0.1347   -0.2753    0.5520 C   0  0  0  0  0  0  0  0  0  0  0  0
   -0.6973    0.5970   -0.5755 C   0  0  0  0  0  0  0  0  0  0  0  0
   -2.0848    1.1493   -0.2455 C   0  0  0  0  0  0  0  0  0  0  0  0
   -3.1736    0.1023   -0.3134 C   0  0  0  0  0  0  0  0  0  0  0  0
   -3.0691   -0.9996   -0.8325 O   0  0  0  0  0  0  0  0  0  0  0  0
   -4.3063    0.5882    0.2705 O   0  0  0  0  0  0  0  0  0  0  0  0
   -5.4067   -0.3218    0.2470 C   0  0  0  0  0  0  0  0  0  0  0  0
    4.9270    1.0062    0.5008 H   0  0  0  0  0  0  0  0  0  0  0  0
    5.7617   -0.1563   -0.5441 H   0  0  0  0  0  0  0  0  0  0  0  0
    4.6363    1.0163   -1.2499 H   0  0  0  0  0  0  0  0  0  0  0  0
    3.6182   -1.2643   -1.0893 H   0  0  0  0  0  0  0  0  0  0  0  0
    3.9092   -1.2749    0.6516 H   0  0  0  0  0  0  0  0  0  0  0  0
    2.4149    0.7217    0.9148 H   0  0  0  0  0  0  0  0  0  0  0  0
    2.1377    0.7368   -0.8288 H   0  0  0  0  0  0  0  0  0  0  0  0
    1.4701   -1.6189    1.0134 H   0  0  0  0  0  0  0  0  0  0  0  0
    1.1007   -1.5276   -0.7052 H   0  0  0  0  0  0  0  0  0  0  0  0
   -0.0267    0.3250    1.4637 H   0  0  0  0  0  0  0  0  0  0  0  0
   -0.8454   -1.0763    0.7868 H   0  0  0  0  0  0  0  0  0  0  0  0
   -0.7296    0.0238   -1.5098 H   0  0  0  0  0  0  0  0  0  0  0  0
   -0.0279    1.4482   -0.7434 H   0  0  0  0  0  0  0  0  0  0  0  0
   -2.3421    1.9294   -0.9709 H   0  0  0  0  0  0  0  0  0  0  0  0
   -2.0769    1.5942    0.7559 H   0  0  0  0  0  0  0  0  0  0  0  0
   -5.6929   -0.5504   -0.7844 H   0  0  0  0  0  0  0  0  0  0  0  0
   -5.1596   -1.2370    0.7940 H   0  0  0  0  0  0  0  0  0  0  0  0
   -6.2545    0.1591    0.7428 H   0  0  0  0  0  0  0  0  0  0  0  0
  1  2  1  0
  2  3  1  0
  3  4  1  0
  4  5  1  0
  5  6  1  0
  6  7  1  0
  7  8  1  0
  8  9  2  0
  8 10  1  0
 10 11  1  0
  1 12  1  0
  1 13  1  0
  1 14  1  0
  2 15  1  0
  2 16  1  0
  3 17  1  0
  3 18  1  0
  4 19  1  0
  4 20  1  0
  5 21  1  0
  5 22  1  0
  6 23  1  0
  6 24  1  0
  7 25  1  0
  7 26  1  0
 11 27  1  0
 11 28  1  0
 11 29  1  0
M  END
>  <Energy>  (14) 
-10.306800381580263

>  <Real charge>  (14) 
0

>  <Mult>  (14) 
1

$$$$
