mol_184 3
     RDKit          3D

  6  5  0  0  0  0  0  0  0  0999 V2000
   -1.3182    1.3486   -0.0327 Cl  0  0  0  0  0  0  0  0  0  0  0  0
   -0.4220   -0.1849    0.0004 C   0  0  0  0  0  0  0  0  0  0  0  0
    1.0175    0.0772    0.0055 C   0  0  0  0  0  0  0  0  0  0  0  0
    2.1652    0.2560    0.0101 N   0  0  0  0  0  0  0  0  0  0  0  0
   -0.7272   -0.7328    0.8960 H   0  0  0  0  0  0  0  0  0  0  0  0
   -0.7152   -0.7641   -0.8793 H   0  0  0  0  0  0  0  0  0  0  0  0
  1  2  1  0
  2  3  1  0
  3  4  3  0
  2  5  1  0
  2  6  1  0
M  END
>  <Energy>  (1) 
10.878243091647562

>  <Real charge>  (1) 
0

>  <Mult>  (1) 
1

$$$$
