mol_994 108
     RDKit          3D

 17 17  0  0  0  0  0  0  0  0999 V2000
   -2.7112    0.0688   -0.2713 C   0  0  0  0  0  0  0  0  0  0  0  0
   -1.2199    0.0099   -0.1072 C   0  0  0  0  0  0  0  0  0  0  0  0
   -0.4344   -0.6904   -1.0332 C   0  0  0  0  0  0  0  0  0  0  0  0
    0.9562   -0.7228   -0.9031 C   0  0  0  0  0  0  0  0  0  0  0  0
    1.5653   -0.0397    0.1566 C   0  0  0  0  0  0  0  0  0  0  0  0
    0.7932    0.6756    1.0801 C   0  0  0  0  0  0  0  0  0  0  0  0
   -0.5965    0.7014    0.9407 C   0  0  0  0  0  0  0  0  0  0  0  0
    3.0260   -0.0697    0.2978 N   0  0  0  0  0  4  0  0  0  0  0  0
    3.6742   -0.7122   -0.5411 O   0  0  0  0  0  1  0  0  0  0  0  0
    3.5273    0.5491    1.2477 O   0  0  0  0  0  0  0  0  0  0  0  0
   -3.2073    0.1668    0.7001 H   0  0  0  0  0  0  0  0  0  0  0  0
   -3.0891   -0.8470   -0.7377 H   0  0  0  0  0  0  0  0  0  0  0  0
   -2.9848    0.9240   -0.8968 H   0  0  0  0  0  0  0  0  0  0  0  0
   -0.9033   -1.2168   -1.8628 H   0  0  0  0  0  0  0  0  0  0  0  0
    1.5436   -1.2777   -1.6316 H   0  0  0  0  0  0  0  0  0  0  0  0
    1.2531    1.2159    1.9049 H   0  0  0  0  0  0  0  0  0  0  0  0
   -1.1924    1.2649    1.6567 H   0  0  0  0  0  0  0  0  0  0  0  0
  1  2  1  0
  2  3  2  0
  3  4  1  0
  4  5  2  0
  5  6  1  0
  6  7  2  0
  5  8  1  0
  8  9  1  0
  8 10  2  0
  7  2  1  0
  1 11  1  0
  1 12  1  0
  1 13  1  0
  3 14  1  0
  4 15  1  0
  6 16  1  0
  7 17  1  0
M  CHG  2   8   1   9  -1
M  END
>  <Energy>  (1) 
51.39583553562512

>  <Real charge>  (1) 
0

>  <Mult>  (1) 
1

$$$$
