mol_857 159
     RDKit          3D

 17 16  0  0  0  0  0  0  0  0999 V2000
   -1.7424    1.0543    0.2022 C   0  0  0  0  0  0  0  0  0  0  0  0
   -0.6915   -0.0306    0.4283 C   0  0  0  0  0  0  0  0  0  0  0  0
   -1.0970   -1.3209   -0.2874 C   0  0  0  0  0  0  0  0  0  0  0  0
    0.6878    0.4554   -0.0346 C   0  0  0  0  0  0  0  0  0  0  0  0
    1.6722   -0.5312    0.3057 O   0  0  0  0  0  0  0  0  0  0  0  0
    2.9332   -0.2100   -0.0748 C   0  0  0  0  0  0  0  0  0  0  0  0
    3.2834    0.8044   -0.6553 O   0  0  0  0  0  0  0  0  0  0  0  0
   -2.7245    0.7250    0.5578 H   0  0  0  0  0  0  0  0  0  0  0  0
   -1.4805    1.9685    0.7451 H   0  0  0  0  0  0  0  0  0  0  0  0
   -1.8333    1.3050   -0.8602 H   0  0  0  0  0  0  0  0  0  0  0  0
   -0.6406   -0.2528    1.5019 H   0  0  0  0  0  0  0  0  0  0  0  0
   -2.0827   -1.6581    0.0508 H   0  0  0  0  0  0  0  0  0  0  0  0
   -1.1436   -1.1749   -1.3720 H   0  0  0  0  0  0  0  0  0  0  0  0
   -0.3847   -2.1271   -0.0841 H   0  0  0  0  0  0  0  0  0  0  0  0
    0.9388    1.3959    0.4708 H   0  0  0  0  0  0  0  0  0  0  0  0
    0.6905    0.6182   -1.1196 H   0  0  0  0  0  0  0  0  0  0  0  0
    3.6148   -1.0209    0.2253 H   0  0  0  0  0  0  0  0  0  0  0  0
  1  2  1  0
  2  3  1  0
  2  4  1  0
  4  5  1  0
  5  6  1  0
  6  7  2  0
  1  8  1  0
  1  9  1  0
  1 10  1  0
  2 11  1  0
  3 12  1  0
  3 13  1  0
  3 14  1  0
  4 15  1  0
  4 16  1  0
  6 17  1  0
M  END
>  <Energy>  (1) 
-6.219499648446653

>  <Real charge>  (1) 
0

>  <Mult>  (1) 
1

$$$$
mol_857 115
     RDKit          3D

 17 16  0  0  0  0  0  0  0  0999 V2000
   -1.2364    1.3125    0.2440 C   0  0  0  0  0  0  0  0  0  0  0  0
   -0.7932    0.0812   -0.5478 C   0  0  0  0  0  0  0  0  0  0  0  0
   -1.3793   -1.1839    0.0811 C   0  0  0  0  0  0  0  0  0  0  0  0
    0.7369   -0.0002   -0.6439 C   0  0  0  0  0  0  0  0  0  0  0  0
    1.3084   -0.1184    0.6659 O   0  0  0  0  0  0  0  0  0  0  0  0
    2.6618   -0.1965    0.6754 C   0  0  0  0  0  0  0  0  0  0  0  0
    3.4001   -0.1754   -0.2958 O   0  0  0  0  0  0  0  0  0  0  0  0
   -2.3283    1.3974    0.2462 H   0  0  0  0  0  0  0  0  0  0  0  0
   -0.8318    2.2268   -0.2027 H   0  0  0  0  0  0  0  0  0  0  0  0
   -0.9017    1.2665    1.2857 H   0  0  0  0  0  0  0  0  0  0  0  0
   -1.1895    0.1704   -1.5670 H   0  0  0  0  0  0  0  0  0  0  0  0
   -1.0780   -2.0726   -0.4833 H   0  0  0  0  0  0  0  0  0  0  0  0
   -2.4739   -1.1437    0.0804 H   0  0  0  0  0  0  0  0  0  0  0  0
   -1.0494   -1.3116    1.1175 H   0  0  0  0  0  0  0  0  0  0  0  0
    1.1242    0.9047   -1.1283 H   0  0  0  0  0  0  0  0  0  0  0  0
    1.0224   -0.8728   -1.2443 H   0  0  0  0  0  0  0  0  0  0  0  0
    3.0076   -0.2843    1.7170 H   0  0  0  0  0  0  0  0  0  0  0  0
  1  2  1  0
  2  3  1  0
  2  4  1  0
  4  5  1  0
  5  6  1  0
  6  7  2  0
  1  8  1  0
  1  9  1  0
  1 10  1  0
  2 11  1  0
  3 12  1  0
  3 13  1  0
  3 14  1  0
  4 15  1  0
  4 16  1  0
  6 17  1  0
M  END
>  <Energy>  (2) 
-6.085836226551668

>  <Real charge>  (2) 
0

>  <Mult>  (2) 
1

$$$$
mol_857 14
     RDKit          3D

 17 16  0  0  0  0  0  0  0  0999 V2000
   -0.4550   -1.3443   -0.9828 C   0  0  0  0  0  0  0  0  0  0  0  0
   -0.5102    0.0029   -0.2597 C   0  0  0  0  0  0  0  0  0  0  0  0
   -1.8908    0.2197    0.3567 C   0  0  0  0  0  0  0  0  0  0  0  0
    0.5769    0.1025    0.8195 C   0  0  0  0  0  0  0  0  0  0  0  0
    1.8882   -0.0406    0.2498 O   0  0  0  0  0  0  0  0  0  0  0  0
    2.4440    1.0970   -0.2352 C   0  0  0  0  0  0  0  0  0  0  0  0
    1.9461    2.2108   -0.2417 O   0  0  0  0  0  0  0  0  0  0  0  0
    0.5081   -1.4848   -1.4841 H   0  0  0  0  0  0  0  0  0  0  0  0
   -1.2371   -1.4061   -1.7470 H   0  0  0  0  0  0  0  0  0  0  0  0
   -0.5987   -2.1757   -0.2843 H   0  0  0  0  0  0  0  0  0  0  0  0
   -0.3391    0.7838   -1.0107 H   0  0  0  0  0  0  0  0  0  0  0  0
   -1.9503    1.2000    0.8410 H   0  0  0  0  0  0  0  0  0  0  0  0
   -2.6706    0.1789   -0.4112 H   0  0  0  0  0  0  0  0  0  0  0  0
   -2.1155   -0.5445    1.1085 H   0  0  0  0  0  0  0  0  0  0  0  0
    0.5018    1.0435    1.3787 H   0  0  0  0  0  0  0  0  0  0  0  0
    0.4606   -0.7052    1.5515 H   0  0  0  0  0  0  0  0  0  0  0  0
    3.4415    0.8620   -0.6376 H   0  0  0  0  0  0  0  0  0  0  0  0
  1  2  1  0
  2  3  1  0
  2  4  1  0
  4  5  1  0
  5  6  1  0
  6  7  2  0
  1  8  1  0
  1  9  1  0
  1 10  1  0
  2 11  1  0
  3 12  1  0
  3 13  1  0
  3 14  1  0
  4 15  1  0
  4 16  1  0
  6 17  1  0
M  END
>  <Energy>  (3) 
-5.926490129597001

>  <Real charge>  (3) 
0

>  <Mult>  (3) 
1

$$$$
