mol_511 324
     RDKit          3D

 40 42  0  0  0  0  0  0  0  0999 V2000
    1.6629   -1.9837   -2.1757 O   0  0  0  0  0  0  0  0  0  0  0  0
    1.0807   -1.4330   -1.2565 C   0  0  0  0  0  0  0  0  0  0  0  0
    1.6089   -0.9946   -0.0907 N   0  0  0  0  0  0  0  0  0  0  0  0
    2.9992   -1.0836    0.2556 C   0  0  0  0  0  0  0  0  0  0  0  0
    3.6447    0.0952   -0.2255 O   0  0  0  0  0  0  0  0  0  0  0  0
    4.9747    0.1152    0.0477 C   0  0  0  0  0  0  0  0  0  0  0  0
    5.5872   -0.7596    0.6427 O   0  0  0  0  0  0  0  0  0  0  0  0
    5.5917    1.3713   -0.4858 C   0  0  0  0  0  0  0  0  0  0  0  0
    0.6677   -0.3291    0.6426 C   0  0  0  0  0  0  0  0  0  0  0  0
    0.8791    0.2293    1.7147 O   0  0  0  0  0  0  0  0  0  0  0  0
   -0.6942   -0.3797   -0.1202 C   0  0  0  0  0  0  0  0  0  0  0  0
   -0.2593   -1.1491   -1.2726 N   0  0  0  0  0  0  0  0  0  0  0  0
   -1.1978    0.9815   -0.6248 C   0  0  0  0  0  0  0  0  0  0  0  0
   -0.4852    2.1781   -0.4334 C   0  0  0  0  0  0  0  0  0  0  0  0
   -0.9727    3.3918   -0.9276 C   0  0  0  0  0  0  0  0  0  0  0  0
   -2.1767    3.4340   -1.6248 C   0  0  0  0  0  0  0  0  0  0  0  0
   -2.8979    2.2627   -1.8306 C   0  0  0  0  0  0  0  0  0  0  0  0
   -2.4134    1.0491   -1.3386 C   0  0  0  0  0  0  0  0  0  0  0  0
   -1.7297   -1.1300    0.7312 C   0  0  0  0  0  0  0  0  0  0  0  0
   -2.2492   -0.5221    1.8913 C   0  0  0  0  0  0  0  0  0  0  0  0
   -3.1905   -1.1757    2.6888 C   0  0  0  0  0  0  0  0  0  0  0  0
   -3.6295   -2.4507    2.3456 C   0  0  0  0  0  0  0  0  0  0  0  0
   -3.1259   -3.0739    1.2072 C   0  0  0  0  0  0  0  0  0  0  0  0
   -2.1836   -2.4220    0.4070 C   0  0  0  0  0  0  0  0  0  0  0  0
    3.0921   -1.1422    1.3460 H   0  0  0  0  0  0  0  0  0  0  0  0
    3.4331   -1.9703   -0.2203 H   0  0  0  0  0  0  0  0  0  0  0  0
    5.4651    1.4146   -1.5705 H   0  0  0  0  0  0  0  0  0  0  0  0
    6.6618    1.3739   -0.2595 H   0  0  0  0  0  0  0  0  0  0  0  0
    5.1327    2.2410   -0.0093 H   0  0  0  0  0  0  0  0  0  0  0  0
   -0.8019   -1.2720   -2.1149 H   0  0  0  0  0  0  0  0  0  0  0  0
    0.4596    2.1994    0.1058 H   0  0  0  0  0  0  0  0  0  0  0  0
   -0.4088    4.3073   -0.7651 H   0  0  0  0  0  0  0  0  0  0  0  0
   -2.5526    4.3800   -2.0057 H   0  0  0  0  0  0  0  0  0  0  0  0
   -3.8400    2.2926   -2.3723 H   0  0  0  0  0  0  0  0  0  0  0  0
   -3.0022    0.1491   -1.5102 H   0  0  0  0  0  0  0  0  0  0  0  0
   -1.9177    0.4732    2.1872 H   0  0  0  0  0  0  0  0  0  0  0  0
   -3.5772   -0.6881    3.5803 H   0  0  0  0  0  0  0  0  0  0  0  0
   -4.3606   -2.9603    2.9679 H   0  0  0  0  0  0  0  0  0  0  0  0
   -3.4646   -4.0726    0.9422 H   0  0  0  0  0  0  0  0  0  0  0  0
   -1.8101   -2.9469   -0.4694 H   0  0  0  0  0  0  0  0  0  0  0  0
  1  2  2  0
  2  3  1  0
  3  4  1  0
  4  5  1  0
  5  6  1  0
  6  7  2  0
  6  8  1  0
  3  9  1  0
  9 10  2  0
  9 11  1  0
 11 12  1  0
 11 13  1  0
 13 14  2  0
 14 15  1  0
 15 16  2  0
 16 17  1  0
 17 18  2  0
 11 19  1  0
 19 20  2  0
 20 21  1  0
 21 22  2  0
 22 23  1  0
 23 24  2  0
 12  2  1  0
 18 13  1  0
 24 19  1  0
  4 25  1  0
  4 26  1  0
  8 27  1  0
  8 28  1  0
  8 29  1  0
 12 30  1  0
 14 31  1  0
 15 32  1  0
 16 33  1  0
 17 34  1  0
 18 35  1  0
 20 36  1  0
 21 37  1  0
 22 38  1  0
 23 39  1  0
 24 40  1  0
M  END
>  <Energy>  (1) 
-36.49976638363468

>  <Real charge>  (1) 
0

>  <Mult>  (1) 
1

$$$$
mol_511 267
     RDKit          3D

 40 42  0  0  0  0  0  0  0  0999 V2000
    1.8364   -1.0675    2.6476 O   0  0  0  0  0  0  0  0  0  0  0  0
    1.2101   -0.8105    1.6333 C   0  0  0  0  0  0  0  0  0  0  0  0
    1.6851   -0.7270    0.3695 N   0  0  0  0  0  0  0  0  0  0  0  0
    3.0644   -0.8883    0.0051 C   0  0  0  0  0  0  0  0  0  0  0  0
    3.6701    0.4038    0.0147 O   0  0  0  0  0  0  0  0  0  0  0  0
    4.9790    0.3747   -0.3448 C   0  0  0  0  0  0  0  0  0  0  0  0
    5.6064   -0.6301   -0.6470 O   0  0  0  0  0  0  0  0  0  0  0  0
    5.5521    1.7581   -0.3186 C   0  0  0  0  0  0  0  0  0  0  0  0
    0.6732   -0.4583   -0.5085 C   0  0  0  0  0  0  0  0  0  0  0  0
    0.8082   -0.3540   -1.7238 O   0  0  0  0  0  0  0  0  0  0  0  0
   -0.6646   -0.3262    0.2872 C   0  0  0  0  0  0  0  0  0  0  0  0
   -0.1374   -0.5693    1.6182 N   0  0  0  0  0  0  0  0  0  0  0  0
   -1.7056   -1.4151   -0.0141 C   0  0  0  0  0  0  0  0  0  0  0  0
   -1.5025   -2.4247   -0.9707 C   0  0  0  0  0  0  0  0  0  0  0  0
   -2.4744   -3.4035   -1.2001 C   0  0  0  0  0  0  0  0  0  0  0  0
   -3.6652   -3.3943   -0.4794 C   0  0  0  0  0  0  0  0  0  0  0  0
   -3.8896   -2.4054    0.4725 C   0  0  0  0  0  0  0  0  0  0  0  0
   -2.9208   -1.4270    0.7039 C   0  0  0  0  0  0  0  0  0  0  0  0
   -1.2178    1.0978    0.1231 C   0  0  0  0  0  0  0  0  0  0  0  0
   -1.1693    2.0531    1.1553 C   0  0  0  0  0  0  0  0  0  0  0  0
   -1.6804    3.3403    0.9673 C   0  0  0  0  0  0  0  0  0  0  0  0
   -2.2445    3.6989   -0.2537 C   0  0  0  0  0  0  0  0  0  0  0  0
   -2.2958    2.7732   -1.2912 C   0  0  0  0  0  0  0  0  0  0  0  0
   -1.7859    1.4867   -1.1063 C   0  0  0  0  0  0  0  0  0  0  0  0
    3.1207   -1.3218   -0.9998 H   0  0  0  0  0  0  0  0  0  0  0  0
    3.5592   -1.5383    0.7356 H   0  0  0  0  0  0  0  0  0  0  0  0
    5.4864    2.1674    0.6927 H   0  0  0  0  0  0  0  0  0  0  0  0
    6.6052    1.7198   -0.6115 H   0  0  0  0  0  0  0  0  0  0  0  0
    5.0165    2.3946   -1.0273 H   0  0  0  0  0  0  0  0  0  0  0  0
   -0.6979   -0.6712    2.4512 H   0  0  0  0  0  0  0  0  0  0  0  0
   -0.5927   -2.4736   -1.5651 H   0  0  0  0  0  0  0  0  0  0  0  0
   -2.2999   -4.1742   -1.9473 H   0  0  0  0  0  0  0  0  0  0  0  0
   -4.4185   -4.1561   -0.6624 H   0  0  0  0  0  0  0  0  0  0  0  0
   -4.8205   -2.3925    1.0338 H   0  0  0  0  0  0  0  0  0  0  0  0
   -3.1270   -0.6602    1.4492 H   0  0  0  0  0  0  0  0  0  0  0  0
   -0.7283    1.8176    2.1212 H   0  0  0  0  0  0  0  0  0  0  0  0
   -1.6337    4.0659    1.7759 H   0  0  0  0  0  0  0  0  0  0  0  0
   -2.6394    4.7011   -0.3986 H   0  0  0  0  0  0  0  0  0  0  0  0
   -2.7295    3.0515   -2.2486 H   0  0  0  0  0  0  0  0  0  0  0  0
   -1.8316    0.7846   -1.9387 H   0  0  0  0  0  0  0  0  0  0  0  0
  1  2  2  0
  2  3  1  0
  3  4  1  0
  4  5  1  0
  5  6  1  0
  6  7  2  0
  6  8  1  0
  3  9  1  0
  9 10  2  0
  9 11  1  0
 11 12  1  0
 11 13  1  0
 13 14  2  0
 14 15  1  0
 15 16  2  0
 16 17  1  0
 17 18  2  0
 11 19  1  0
 19 20  2  0
 20 21  1  0
 21 22  2  0
 22 23  1  0
 23 24  2  0
 12  2  1  0
 18 13  1  0
 24 19  1  0
  4 25  1  0
  4 26  1  0
  8 27  1  0
  8 28  1  0
  8 29  1  0
 12 30  1  0
 14 31  1  0
 15 32  1  0
 16 33  1  0
 17 34  1  0
 18 35  1  0
 20 36  1  0
 21 37  1  0
 22 38  1  0
 23 39  1  0
 24 40  1  0
M  END
>  <Energy>  (2) 
-36.27696005532361

>  <Real charge>  (2) 
0

>  <Mult>  (2) 
1

$$$$
