mol_424 18
     RDKit          3D

 12 12  0  0  0  0  0  0  0  0999 V2000
    1.0004    0.9426    0.0036 C   0  0  0  0  0  0  0  0  0  0  0  0
    2.3619    2.2665    0.0081 Br  0  0  0  0  0  0  0  0  0  0  0  0
    1.2692   -0.4317    0.0223 C   0  0  0  0  0  0  0  0  0  0  0  0
    3.0311   -1.1415    0.0544 Br  0  0  0  0  0  0  0  0  0  0  0  0
    0.2127   -1.3495    0.0176 C   0  0  0  0  0  0  0  0  0  0  0  0
   -1.1036   -0.8912   -0.0056 C   0  0  0  0  0  0  0  0  0  0  0  0
   -2.5288   -2.1330   -0.0119 Br  0  0  0  0  0  0  0  0  0  0  0  0
   -1.3785    0.4742   -0.0242 C   0  0  0  0  0  0  0  0  0  0  0  0
   -0.3254    1.3911   -0.0196 C   0  0  0  0  0  0  0  0  0  0  0  0
    0.4151   -2.4178    0.0320 H   0  0  0  0  0  0  0  0  0  0  0  0
   -2.4042    0.8347   -0.0424 H   0  0  0  0  0  0  0  0  0  0  0  0
   -0.5499    2.4555   -0.0343 H   0  0  0  0  0  0  0  0  0  0  0  0
  1  2  1  0
  1  3  2  0
  3  4  1  0
  3  5  1  0
  5  6  2  0
  6  7  1  0
  6  8  1  0
  8  9  2  0
  9  1  1  0
  5 10  1  0
  8 11  1  0
  9 12  1  0
M  END
>  <Energy>  (1) 
17.830332049274993

>  <Real charge>  (1) 
0

>  <Mult>  (1) 
1

$$$$
