mol_876 384
     RDKit          3D

 24 24  0  0  0  0  0  0  0  0999 V2000
   -2.0054    1.3630    1.3227 O   0  0  0  0  0  0  0  0  0  0  0  0
   -2.3037    1.1337   -0.0547 C   0  0  0  0  0  0  0  0  0  0  0  0
   -1.2286    0.2740   -0.7217 C   0  0  0  0  0  0  0  0  0  0  0  0
    0.0392    0.9794   -0.6438 O   0  0  0  0  0  0  0  0  0  0  0  0
    0.9666    0.1269    0.0390 C   0  0  0  0  0  0  0  0  0  0  0  0
    0.9298    0.4805    1.4255 O   0  0  0  0  0  0  0  0  0  0  0  0
    2.3828    0.3418   -0.5061 C   0  0  0  0  0  0  0  0  0  0  0  0
    2.7782    1.6951   -0.2312 O   0  0  0  0  0  0  0  0  0  0  0  0
    0.4527   -1.2975   -0.1490 C   0  0  0  0  0  0  0  0  0  0  0  0
    0.9250   -2.2128    0.8366 O   0  0  0  0  0  0  0  0  0  0  0  0
   -1.0467   -1.0851   -0.0412 C   0  0  0  0  0  0  0  0  0  0  0  0
   -1.7619   -2.1190   -0.7125 O   0  0  0  0  0  0  0  0  0  0  0  0
   -1.0497    1.5625    1.3760 H   0  0  0  0  0  0  0  0  0  0  0  0
   -2.3600    2.1138   -0.5388 H   0  0  0  0  0  0  0  0  0  0  0  0
   -3.2851    0.6544   -0.1165 H   0  0  0  0  0  0  0  0  0  0  0  0
   -1.4722    0.1559   -1.7839 H   0  0  0  0  0  0  0  0  0  0  0  0
    1.6261    1.1627    1.5239 H   0  0  0  0  0  0  0  0  0  0  0  0
    3.1035   -0.3131   -0.0077 H   0  0  0  0  0  0  0  0  0  0  0  0
    2.4325    0.1884   -1.5884 H   0  0  0  0  0  0  0  0  0  0  0  0
    2.1246    2.2620   -0.6869 H   0  0  0  0  0  0  0  0  0  0  0  0
    0.7062   -1.6976   -1.1379 H   0  0  0  0  0  0  0  0  0  0  0  0
    0.9042   -1.7263    1.6870 H   0  0  0  0  0  0  0  0  0  0  0  0
   -1.3737   -1.0856    1.0046 H   0  0  0  0  0  0  0  0  0  0  0  0
   -1.4846   -2.9571   -0.2951 H   0  0  0  0  0  0  0  0  0  0  0  0
  1  2  1  0
  2  3  1  0
  3  4  1  0
  4  5  1  0
  5  6  1  0
  5  7  1  0
  7  8  1  0
  5  9  1  0
  9 10  1  0
  9 11  1  0
 11 12  1  0
 11  3  1  0
  1 13  1  0
  2 14  1  0
  2 15  1  0
  3 16  1  0
  6 17  1  0
  7 18  1  0
  7 19  1  0
  8 20  1  0
  9 21  1  0
 10 22  1  0
 11 23  1  0
 12 24  1  0
M  END
>  <Energy>  (1) 
98.06801265530903

>  <Real charge>  (1) 
0

>  <Mult>  (1) 
1

$$$$
mol_876 609
     RDKit          3D

 24 24  0  0  0  0  0  0  0  0999 V2000
   -3.2324    0.6839    0.2578 O   0  0  0  0  0  0  0  0  0  0  0  0
   -2.3026   -0.3953    0.3213 C   0  0  0  0  0  0  0  0  0  0  0  0
   -0.8756    0.1419    0.3218 C   0  0  0  0  0  0  0  0  0  0  0  0
    0.0819   -0.9309    0.3128 O   0  0  0  0  0  0  0  0  0  0  0  0
    1.0941   -0.5921   -0.6616 C   0  0  0  0  0  0  0  0  0  0  0  0
    0.8314   -1.3935   -1.8150 O   0  0  0  0  0  0  0  0  0  0  0  0
    2.4748   -0.9462   -0.0935 C   0  0  0  0  0  0  0  0  0  0  0  0
    2.5265   -2.3683    0.1262 O   0  0  0  0  0  0  0  0  0  0  0  0
    0.9171    0.8918   -1.0096 C   0  0  0  0  0  0  0  0  0  0  0  0
    1.5399    1.7691   -0.0611 O   0  0  0  0  0  0  0  0  0  0  0  0
   -0.5909    1.0195   -0.8970 C   0  0  0  0  0  0  0  0  0  0  0  0
   -0.9881    2.3758   -0.7059 O   0  0  0  0  0  0  0  0  0  0  0  0
   -4.1207    0.2880    0.3256 H   0  0  0  0  0  0  0  0  0  0  0  0
   -2.4701   -1.0604   -0.5330 H   0  0  0  0  0  0  0  0  0  0  0  0
   -2.4883   -0.9760    1.2312 H   0  0  0  0  0  0  0  0  0  0  0  0
   -0.7240    0.7243    1.2401 H   0  0  0  0  0  0  0  0  0  0  0  0
    1.3195   -2.2246   -1.6497 H   0  0  0  0  0  0  0  0  0  0  0  0
    3.2701   -0.6996   -0.8029 H   0  0  0  0  0  0  0  0  0  0  0  0
    2.6678   -0.4558    0.8653 H   0  0  0  0  0  0  0  0  0  0  0  0
    1.7955   -2.5559    0.7481 H   0  0  0  0  0  0  0  0  0  0  0  0
    1.2820    1.1550   -2.0071 H   0  0  0  0  0  0  0  0  0  0  0  0
    1.0029    2.5895   -0.0957 H   0  0  0  0  0  0  0  0  0  0  0  0
   -1.0751    0.6259   -1.7989 H   0  0  0  0  0  0  0  0  0  0  0  0
   -1.9357    2.3343   -0.4554 H   0  0  0  0  0  0  0  0  0  0  0  0
  1  2  1  0
  2  3  1  0
  3  4  1  0
  4  5  1  0
  5  6  1  0
  5  7  1  0
  7  8  1  0
  5  9  1  0
  9 10  1  0
  9 11  1  0
 11 12  1  0
 11  3  1  0
  1 13  1  0
  2 14  1  0
  2 15  1  0
  3 16  1  0
  6 17  1  0
  7 18  1  0
  7 19  1  0
  8 20  1  0
  9 21  1  0
 10 22  1  0
 11 23  1  0
 12 24  1  0
M  END
>  <Energy>  (2) 
98.10008161906272

>  <Real charge>  (2) 
0

>  <Mult>  (2) 
1

$$$$
mol_876 220
     RDKit          3D

 24 24  0  0  0  0  0  0  0  0999 V2000
    1.9162   -1.6547    0.5762 O   0  0  0  0  0  0  0  0  0  0  0  0
    2.0094   -1.0730   -0.7260 C   0  0  0  0  0  0  0  0  0  0  0  0
    0.8932   -0.0510   -0.9395 C   0  0  0  0  0  0  0  0  0  0  0  0
   -0.3924   -0.7120   -0.8467 O   0  0  0  0  0  0  0  0  0  0  0  0
   -1.2235    0.0594    0.0345 C   0  0  0  0  0  0  0  0  0  0  0  0
   -2.5042    0.2219   -0.5744 O   0  0  0  0  0  0  0  0  0  0  0  0
   -1.3696   -0.6938    1.3687 C   0  0  0  0  0  0  0  0  0  0  0  0
   -1.9983   -1.9594    1.1140 O   0  0  0  0  0  0  0  0  0  0  0  0
   -0.5619    1.4331    0.1773 C   0  0  0  0  0  0  0  0  0  0  0  0
   -0.8753    2.2807   -0.9529 O   0  0  0  0  0  0  0  0  0  0  0  0
    0.9076    1.0755    0.0972 C   0  0  0  0  0  0  0  0  0  0  0  0
    1.6963    2.1846   -0.3243 O   0  0  0  0  0  0  0  0  0  0  0  0
    2.6369   -2.3064    0.6418 H   0  0  0  0  0  0  0  0  0  0  0  0
    2.9924   -0.6028   -0.8270 H   0  0  0  0  0  0  0  0  0  0  0  0
    1.9193   -1.8857   -1.4539 H   0  0  0  0  0  0  0  0  0  0  0  0
    0.9796    0.3529   -1.9557 H   0  0  0  0  0  0  0  0  0  0  0  0
   -2.9738   -0.6114   -0.3709 H   0  0  0  0  0  0  0  0  0  0  0  0
   -0.4082   -0.8896    1.8507 H   0  0  0  0  0  0  0  0  0  0  0  0
   -2.0169   -0.1451    2.0592 H   0  0  0  0  0  0  0  0  0  0  0  0
   -1.4045   -2.4177    0.4850 H   0  0  0  0  0  0  0  0  0  0  0  0
   -0.8445    1.9800    1.0807 H   0  0  0  0  0  0  0  0  0  0  0  0
   -1.7468    1.9527   -1.2685 H   0  0  0  0  0  0  0  0  0  0  0  0
    1.2736    0.7357    1.0713 H   0  0  0  0  0  0  0  0  0  0  0  0
    1.0955    2.7261   -0.8814 H   0  0  0  0  0  0  0  0  0  0  0  0
  1  2  1  0
  2  3  1  0
  3  4  1  0
  4  5  1  0
  5  6  1  0
  5  7  1  0
  7  8  1  0
  5  9  1  0
  9 10  1  0
  9 11  1  0
 11 12  1  0
 11  3  1  0
  1 13  1  0
  2 14  1  0
  2 15  1  0
  3 16  1  0
  6 17  1  0
  7 18  1  0
  7 19  1  0
  8 20  1  0
  9 21  1  0
 10 22  1  0
 11 23  1  0
 12 24  1  0
M  END
>  <Energy>  (3) 
98.48853542397872

>  <Real charge>  (3) 
0

>  <Mult>  (3) 
1

$$$$
mol_876 657
     RDKit          3D

 24 24  0  0  0  0  0  0  0  0999 V2000
    1.3947    1.2231   -1.4143 O   0  0  0  0  0  0  0  0  0  0  0  0
    1.8654   -0.1255   -1.3005 C   0  0  0  0  0  0  0  0  0  0  0  0
    1.0700   -0.9017   -0.2452 C   0  0  0  0  0  0  0  0  0  0  0  0
   -0.3174   -0.9451   -0.6620 O   0  0  0  0  0  0  0  0  0  0  0  0
   -1.1203   -0.4124    0.4072 C   0  0  0  0  0  0  0  0  0  0  0  0
   -1.5753   -1.5226    1.1802 O   0  0  0  0  0  0  0  0  0  0  0  0
   -2.3269    0.3220   -0.1918 C   0  0  0  0  0  0  0  0  0  0  0  0
   -3.1249   -0.6274   -0.9215 O   0  0  0  0  0  0  0  0  0  0  0  0
   -0.1999    0.4723    1.2531 C   0  0  0  0  0  0  0  0  0  0  0  0
   -0.0038    1.7926    0.7256 O   0  0  0  0  0  0  0  0  0  0  0  0
    1.1002   -0.3159    1.1726 C   0  0  0  0  0  0  0  0  0  0  0  0
    2.2473    0.4742    1.4605 O   0  0  0  0  0  0  0  0  0  0  0  0
    1.9218    1.6311   -2.1275 H   0  0  0  0  0  0  0  0  0  0  0  0
    2.9314   -0.1033   -1.0541 H   0  0  0  0  0  0  0  0  0  0  0  0
    1.7359   -0.5947   -2.2814 H   0  0  0  0  0  0  0  0  0  0  0  0
    1.4407   -1.9331   -0.2264 H   0  0  0  0  0  0  0  0  0  0  0  0
   -2.3986   -1.8104    0.7385 H   0  0  0  0  0  0  0  0  0  0  0  0
   -2.9622    0.7454    0.5916 H   0  0  0  0  0  0  0  0  0  0  0  0
   -2.0278    1.1083   -0.8912 H   0  0  0  0  0  0  0  0  0  0  0  0
   -2.5185   -1.0193   -1.5813 H   0  0  0  0  0  0  0  0  0  0  0  0
   -0.5418    0.5803    2.2870 H   0  0  0  0  0  0  0  0  0  0  0  0
    0.3735    1.6966   -0.1807 H   0  0  0  0  0  0  0  0  0  0  0  0
    1.0717   -1.1417    1.8939 H   0  0  0  0  0  0  0  0  0  0  0  0
    1.9646    1.4072    1.3678 H   0  0  0  0  0  0  0  0  0  0  0  0
  1  2  1  0
  2  3  1  0
  3  4  1  0
  4  5  1  0
  5  6  1  0
  5  7  1  0
  7  8  1  0
  5  9  1  0
  9 10  1  0
  9 11  1  0
 11 12  1  0
 11  3  1  0
  1 13  1  0
  2 14  1  0
  2 15  1  0
  3 16  1  0
  6 17  1  0
  7 18  1  0
  7 19  1  0
  8 20  1  0
  9 21  1  0
 10 22  1  0
 11 23  1  0
 12 24  1  0
M  END
>  <Energy>  (4) 
98.63893075525415

>  <Real charge>  (4) 
0

>  <Mult>  (4) 
1

$$$$
mol_876 647
     RDKit          3D

 24 24  0  0  0  0  0  0  0  0999 V2000
    2.5206    1.6052    1.3995 O   0  0  0  0  0  0  0  0  0  0  0  0
    2.2587    0.3905    0.6927 C   0  0  0  0  0  0  0  0  0  0  0  0
    1.1005    0.6179   -0.2833 C   0  0  0  0  0  0  0  0  0  0  0  0
   -0.0902    0.8934    0.4999 O   0  0  0  0  0  0  0  0  0  0  0  0
   -0.9915   -0.2173    0.3465 C   0  0  0  0  0  0  0  0  0  0  0  0
   -1.3895   -0.6583    1.6479 O   0  0  0  0  0  0  0  0  0  0  0  0
   -2.2276    0.2672   -0.4332 C   0  0  0  0  0  0  0  0  0  0  0  0
   -2.9018    1.2621    0.3578 O   0  0  0  0  0  0  0  0  0  0  0  0
   -0.2244   -1.3532   -0.3495 C   0  0  0  0  0  0  0  0  0  0  0  0
    0.4599   -2.1739    0.6120 O   0  0  0  0  0  0  0  0  0  0  0  0
    0.7991   -0.5947   -1.1677 C   0  0  0  0  0  0  0  0  0  0  0  0
    0.1948   -0.1774   -2.3967 O   0  0  0  0  0  0  0  0  0  0  0  0
    1.6692    1.8622    1.8031 H   0  0  0  0  0  0  0  0  0  0  0  0
    2.0315   -0.3711    1.4430 H   0  0  0  0  0  0  0  0  0  0  0  0
    3.1722    0.1084    0.1614 H   0  0  0  0  0  0  0  0  0  0  0  0
    1.2928    1.5165   -0.8803 H   0  0  0  0  0  0  0  0  0  0  0  0
   -2.1460   -0.0824    1.8785 H   0  0  0  0  0  0  0  0  0  0  0  0
   -1.9733    0.7271   -1.3913 H   0  0  0  0  0  0  0  0  0  0  0  0
   -2.9376   -0.5494   -0.5934 H   0  0  0  0  0  0  0  0  0  0  0  0
   -2.2431    1.9702    0.5030 H   0  0  0  0  0  0  0  0  0  0  0  0
   -0.8806   -2.0015   -0.9379 H   0  0  0  0  0  0  0  0  0  0  0  0
   -0.0767   -2.0983    1.4319 H   0  0  0  0  0  0  0  0  0  0  0  0
    1.6921   -1.1812   -1.4055 H   0  0  0  0  0  0  0  0  0  0  0  0
    0.8908    0.2380   -2.9384 H   0  0  0  0  0  0  0  0  0  0  0  0
  1  2  1  0
  2  3  1  0
  3  4  1  0
  4  5  1  0
  5  6  1  0
  5  7  1  0
  7  8  1  0
  5  9  1  0
  9 10  1  0
  9 11  1  0
 11 12  1  0
 11  3  1  0
  1 13  1  0
  2 14  1  0
  2 15  1  0
  3 16  1  0
  6 17  1  0
  7 18  1  0
  7 19  1  0
  8 20  1  0
  9 21  1  0
 10 22  1  0
 11 23  1  0
 12 24  1  0
M  END
>  <Energy>  (5) 
98.99412716496724

>  <Real charge>  (5) 
0

>  <Mult>  (5) 
1

$$$$
