mol_42 180
     RDKit          3D

 16 15  0  0  0  0  0  0  0  0999 V2000
    2.6793    1.0039    0.1382 O   0  0  0  0  0  0  0  0  0  0  0  0
    1.2938    0.8057   -0.1177 C   0  0  0  0  0  0  0  0  0  0  0  0
    1.0009   -0.6888   -0.0909 C   0  0  0  0  0  0  0  0  0  0  0  0
   -0.4456   -1.0251   -0.4513 C   0  0  0  0  0  0  0  0  0  0  0  0
   -1.4357   -0.5082    0.5531 C   0  0  0  0  0  0  0  0  0  0  0  0
   -2.4130    0.3608    0.2660 C   0  0  0  0  0  0  0  0  0  0  0  0
    2.8335    1.9641    0.1334 H   0  0  0  0  0  0  0  0  0  0  0  0
    0.7249    1.3386    0.6501 H   0  0  0  0  0  0  0  0  0  0  0  0
    1.0592    1.2327   -1.0979 H   0  0  0  0  0  0  0  0  0  0  0  0
    1.6724   -1.1962   -0.7954 H   0  0  0  0  0  0  0  0  0  0  0  0
    1.2548   -1.0931    0.8975 H   0  0  0  0  0  0  0  0  0  0  0  0
   -0.5521   -2.1155   -0.5013 H   0  0  0  0  0  0  0  0  0  0  0  0
   -0.6714   -0.6436   -1.4547 H   0  0  0  0  0  0  0  0  0  0  0  0
   -1.3456   -0.8844    1.5707 H   0  0  0  0  0  0  0  0  0  0  0  0
   -2.5510    0.7573   -0.7351 H   0  0  0  0  0  0  0  0  0  0  0  0
   -3.1045    0.6916    1.0352 H   0  0  0  0  0  0  0  0  0  0  0  0
  1  2  1  0
  2  3  1  0
  3  4  1  0
  4  5  1  0
  5  6  2  3
  1  7  1  0
  2  8  1  0
  2  9  1  0
  3 10  1  0
  3 11  1  0
  4 12  1  0
  4 13  1  0
  5 14  1  0
  6 15  1  0
  6 16  1  0
M  END
>  <Energy>  (1) 
7.252576994191112

>  <Real charge>  (1) 
0

>  <Mult>  (1) 
1

$$$$
mol_42 106
     RDKit          3D

 16 15  0  0  0  0  0  0  0  0999 V2000
   -2.8614    0.2416   -0.5454 O   0  0  0  0  0  0  0  0  0  0  0  0
   -1.5336    0.3197   -0.0392 C   0  0  0  0  0  0  0  0  0  0  0  0
   -0.7213   -0.8640   -0.5515 C   0  0  0  0  0  0  0  0  0  0  0  0
    0.6957   -0.9104    0.0190 C   0  0  0  0  0  0  0  0  0  0  0  0
    1.5514    0.2309   -0.4516 C   0  0  0  0  0  0  0  0  0  0  0  0
    2.0920    1.1474    0.3611 C   0  0  0  0  0  0  0  0  0  0  0  0
   -2.8068    0.3077   -1.5141 H   0  0  0  0  0  0  0  0  0  0  0  0
   -1.1052    1.2768   -0.3517 H   0  0  0  0  0  0  0  0  0  0  0  0
   -1.5908    0.3083    1.0536 H   0  0  0  0  0  0  0  0  0  0  0  0
   -1.2441   -1.7926   -0.2891 H   0  0  0  0  0  0  0  0  0  0  0  0
   -0.6936   -0.8436   -1.6486 H   0  0  0  0  0  0  0  0  0  0  0  0
    1.1741   -1.8446   -0.2991 H   0  0  0  0  0  0  0  0  0  0  0  0
    0.6505   -0.9410    1.1145 H   0  0  0  0  0  0  0  0  0  0  0  0
    1.7468    0.2935   -1.5205 H   0  0  0  0  0  0  0  0  0  0  0  0
    2.7108    1.9464   -0.0363 H   0  0  0  0  0  0  0  0  0  0  0  0
    1.9355    1.1239    1.4353 H   0  0  0  0  0  0  0  0  0  0  0  0
  1  2  1  0
  2  3  1  0
  3  4  1  0
  4  5  1  0
  5  6  2  3
  1  7  1  0
  2  8  1  0
  2  9  1  0
  3 10  1  0
  3 11  1  0
  4 12  1  0
  4 13  1  0
  5 14  1  0
  6 15  1  0
  6 16  1  0
M  END
>  <Energy>  (2) 
7.514549158454188

>  <Real charge>  (2) 
0

>  <Mult>  (2) 
1

$$$$
mol_42 239
     RDKit          3D

 16 15  0  0  0  0  0  0  0  0999 V2000
    2.8158   -0.4863   -0.9301 O   0  0  0  0  0  0  0  0  0  0  0  0
    1.9427    0.2195   -0.0589 C   0  0  0  0  0  0  0  0  0  0  0  0
    0.5713   -0.4399   -0.0930 C   0  0  0  0  0  0  0  0  0  0  0  0
   -0.4110    0.2697    0.8359 C   0  0  0  0  0  0  0  0  0  0  0  0
   -1.7624   -0.3845    0.8086 C   0  0  0  0  0  0  0  0  0  0  0  0
   -2.8864    0.2299    0.4194 C   0  0  0  0  0  0  0  0  0  0  0  0
    3.6791   -0.0402   -0.8934 H   0  0  0  0  0  0  0  0  0  0  0  0
    1.8841    1.2602   -0.3935 H   0  0  0  0  0  0  0  0  0  0  0  0
    2.3641    0.1931    0.9510 H   0  0  0  0  0  0  0  0  0  0  0  0
    0.6703   -1.4969    0.1864 H   0  0  0  0  0  0  0  0  0  0  0  0
    0.1940   -0.4391   -1.1239 H   0  0  0  0  0  0  0  0  0  0  0  0
   -0.4880    1.3269    0.5535 H   0  0  0  0  0  0  0  0  0  0  0  0
   -0.0344    0.2423    1.8655 H   0  0  0  0  0  0  0  0  0  0  0  0
   -1.8148   -1.4214    1.1356 H   0  0  0  0  0  0  0  0  0  0  0  0
   -3.8362   -0.2964    0.4239 H   0  0  0  0  0  0  0  0  0  0  0  0
   -2.8883    1.2631    0.0864 H   0  0  0  0  0  0  0  0  0  0  0  0
  1  2  1  0
  2  3  1  0
  3  4  1  0
  4  5  1  0
  5  6  2  3
  1  7  1  0
  2  8  1  0
  2  9  1  0
  3 10  1  0
  3 11  1  0
  4 12  1  0
  4 13  1  0
  5 14  1  0
  6 15  1  0
  6 16  1  0
M  END
>  <Energy>  (3) 
7.55428356841017

>  <Real charge>  (3) 
0

>  <Mult>  (3) 
1

$$$$
mol_42 189
     RDKit          3D

 16 15  0  0  0  0  0  0  0  0999 V2000
    2.4704   -0.2315    0.7627 O   0  0  0  0  0  0  0  0  0  0  0  0
    1.9967   -0.1230   -0.5719 C   0  0  0  0  0  0  0  0  0  0  0  0
    0.5498   -0.5928   -0.6512 C   0  0  0  0  0  0  0  0  0  0  0  0
   -0.3860    0.2875    0.1810 C   0  0  0  0  0  0  0  0  0  0  0  0
   -1.8144   -0.1613    0.0481 C   0  0  0  0  0  0  0  0  0  0  0  0
   -2.7933    0.5894   -0.4724 C   0  0  0  0  0  0  0  0  0  0  0  0
    3.3994    0.0564    0.7606 H   0  0  0  0  0  0  0  0  0  0  0  0
    2.0895    0.9187   -0.8957 H   0  0  0  0  0  0  0  0  0  0  0  0
    2.6279   -0.7468   -1.2127 H   0  0  0  0  0  0  0  0  0  0  0  0
    0.4857   -1.6268   -0.2893 H   0  0  0  0  0  0  0  0  0  0  0  0
    0.2310   -0.5899   -1.7006 H   0  0  0  0  0  0  0  0  0  0  0  0
   -0.1078    0.2410    1.2404 H   0  0  0  0  0  0  0  0  0  0  0  0
   -0.2812    1.3341   -0.1302 H   0  0  0  0  0  0  0  0  0  0  0  0
   -2.0507   -1.1582    0.4152 H   0  0  0  0  0  0  0  0  0  0  0  0
   -2.6081    1.5922   -0.8441 H   0  0  0  0  0  0  0  0  0  0  0  0
   -3.8090    0.2109   -0.5344 H   0  0  0  0  0  0  0  0  0  0  0  0
  1  2  1  0
  2  3  1  0
  3  4  1  0
  4  5  1  0
  5  6  2  3
  1  7  1  0
  2  8  1  0
  2  9  1  0
  3 10  1  0
  3 11  1  0
  4 12  1  0
  4 13  1  0
  5 14  1  0
  6 15  1  0
  6 16  1  0
M  END
>  <Energy>  (4) 
7.671112520215466

>  <Real charge>  (4) 
0

>  <Mult>  (4) 
1

$$$$
mol_42 197
     RDKit          3D

 16 15  0  0  0  0  0  0  0  0999 V2000
    2.9085    0.7970    0.6046 O   0  0  0  0  0  0  0  0  0  0  0  0
    1.9211    0.6619   -0.4090 C   0  0  0  0  0  0  0  0  0  0  0  0
    0.6708    0.0103    0.1666 C   0  0  0  0  0  0  0  0  0  0  0  0
   -0.4216   -0.1286   -0.8912 C   0  0  0  0  0  0  0  0  0  0  0  0
   -1.6463   -0.7907   -0.3286 C   0  0  0  0  0  0  0  0  0  0  0  0
   -2.8478   -0.2046   -0.2536 C   0  0  0  0  0  0  0  0  0  0  0  0
    3.1053   -0.0925    0.9447 H   0  0  0  0  0  0  0  0  0  0  0  0
    2.3418    0.0650   -1.2247 H   0  0  0  0  0  0  0  0  0  0  0  0
    1.6975    1.6611   -0.7955 H   0  0  0  0  0  0  0  0  0  0  0  0
    0.9312   -0.9722    0.5812 H   0  0  0  0  0  0  0  0  0  0  0  0
    0.3101    0.6053    1.0156 H   0  0  0  0  0  0  0  0  0  0  0  0
   -0.6686    0.8595   -1.2987 H   0  0  0  0  0  0  0  0  0  0  0  0
   -0.0543   -0.7346   -1.7281 H   0  0  0  0  0  0  0  0  0  0  0  0
   -1.5367   -1.8134    0.0272 H   0  0  0  0  0  0  0  0  0  0  0  0
   -3.6999   -0.7356    0.1599 H   0  0  0  0  0  0  0  0  0  0  0  0
   -3.0112    0.8120   -0.5979 H   0  0  0  0  0  0  0  0  0  0  0  0
  1  2  1  0
  2  3  1  0
  3  4  1  0
  4  5  1  0
  5  6  2  3
  1  7  1  0
  2  8  1  0
  2  9  1  0
  3 10  1  0
  3 11  1  0
  4 12  1  0
  4 13  1  0
  5 14  1  0
  6 15  1  0
  6 16  1  0
M  END
>  <Energy>  (5) 
7.714455893537609

>  <Real charge>  (5) 
0

>  <Mult>  (5) 
1

$$$$
mol_42 92
     RDKit          3D

 16 15  0  0  0  0  0  0  0  0999 V2000
    2.7050    0.5030    0.8316 O   0  0  0  0  0  0  0  0  0  0  0  0
    1.3576    0.6329    0.3917 C   0  0  0  0  0  0  0  0  0  0  0  0
    0.9112   -0.6592   -0.2828 C   0  0  0  0  0  0  0  0  0  0  0  0
   -0.5033   -0.5817   -0.8571 C   0  0  0  0  0  0  0  0  0  0  0  0
   -1.5581   -0.4232    0.1997 C   0  0  0  0  0  0  0  0  0  0  0  0
   -2.3987    0.6163    0.2715 C   0  0  0  0  0  0  0  0  0  0  0  0
    3.2564    0.3497    0.0456 H   0  0  0  0  0  0  0  0  0  0  0  0
    1.2996    1.4828   -0.2959 H   0  0  0  0  0  0  0  0  0  0  0  0
    0.7442    0.8575    1.2691 H   0  0  0  0  0  0  0  0  0  0  0  0
    1.6115   -0.9002   -1.0927 H   0  0  0  0  0  0  0  0  0  0  0  0
    0.9921   -1.4895    0.4305 H   0  0  0  0  0  0  0  0  0  0  0  0
   -0.5572    0.2336   -1.5890 H   0  0  0  0  0  0  0  0  0  0  0  0
   -0.7115   -1.5079   -1.4064 H   0  0  0  0  0  0  0  0  0  0  0  0
   -1.6372   -1.2171    0.9405 H   0  0  0  0  0  0  0  0  0  0  0  0
   -3.1453    0.6723    1.0583 H   0  0  0  0  0  0  0  0  0  0  0  0
   -2.3663    1.4308   -0.4454 H   0  0  0  0  0  0  0  0  0  0  0  0
  1  2  1  0
  2  3  1  0
  3  4  1  0
  4  5  1  0
  5  6  2  3
  1  7  1  0
  2  8  1  0
  2  9  1  0
  3 10  1  0
  3 11  1  0
  4 12  1  0
  4 13  1  0
  5 14  1  0
  6 15  1  0
  6 16  1  0
M  END
>  <Energy>  (6) 
7.813806589062606

>  <Real charge>  (6) 
0

>  <Mult>  (6) 
1

$$$$
mol_42 165
     RDKit          3D

 16 15  0  0  0  0  0  0  0  0999 V2000
   -2.8081    0.7561    0.4337 O   0  0  0  0  0  0  0  0  0  0  0  0
   -1.6607    0.9305   -0.3865 C   0  0  0  0  0  0  0  0  0  0  0  0
   -0.5397    0.0425    0.1366 C   0  0  0  0  0  0  0  0  0  0  0  0
    0.7263    0.1876   -0.7094 C   0  0  0  0  0  0  0  0  0  0  0  0
    1.9132   -0.6411   -0.2951 C   0  0  0  0  0  0  0  0  0  0  0  0
    1.9906   -1.4953    0.7334 C   0  0  0  0  0  0  0  0  0  0  0  0
   -3.5050    1.3331    0.0773 H   0  0  0  0  0  0  0  0  0  0  0  0
   -1.9245    0.6621   -1.4145 H   0  0  0  0  0  0  0  0  0  0  0  0
   -1.3697    1.9854   -0.3571 H   0  0  0  0  0  0  0  0  0  0  0  0
   -0.8824   -1.0000    0.1425 H   0  0  0  0  0  0  0  0  0  0  0  0
   -0.3363    0.3023    1.1832 H   0  0  0  0  0  0  0  0  0  0  0  0
    1.0383    1.2395   -0.7064 H   0  0  0  0  0  0  0  0  0  0  0  0
    0.4906   -0.0669   -1.7503 H   0  0  0  0  0  0  0  0  0  0  0  0
    2.7995   -0.5160   -0.9166 H   0  0  0  0  0  0  0  0  0  0  0  0
    2.9102   -2.0386    0.9307 H   0  0  0  0  0  0  0  0  0  0  0  0
    1.1576   -1.6813    1.4033 H   0  0  0  0  0  0  0  0  0  0  0  0
  1  2  1  0
  2  3  1  0
  3  4  1  0
  4  5  1  0
  5  6  2  3
  1  7  1  0
  2  8  1  0
  2  9  1  0
  3 10  1  0
  3 11  1  0
  4 12  1  0
  4 13  1  0
  5 14  1  0
  6 15  1  0
  6 16  1  0
M  END
>  <Energy>  (7) 
7.824322368017691

>  <Real charge>  (7) 
0

>  <Mult>  (7) 
1

$$$$
mol_42 15
     RDKit          3D

 16 15  0  0  0  0  0  0  0  0999 V2000
   -1.8865    0.6676    1.5677 O   0  0  0  0  0  0  0  0  0  0  0  0
   -2.0079    0.3705    0.1844 C   0  0  0  0  0  0  0  0  0  0  0  0
   -0.6448    0.4545   -0.4912 C   0  0  0  0  0  0  0  0  0  0  0  0
    0.3366   -0.5813    0.0630 C   0  0  0  0  0  0  0  0  0  0  0  0
    1.6450   -0.5434   -0.6766 C   0  0  0  0  0  0  0  0  0  0  0  0
    2.8171   -0.2334   -0.1086 C   0  0  0  0  0  0  0  0  0  0  0  0
   -2.7808    0.6298    1.9482 H   0  0  0  0  0  0  0  0  0  0  0  0
   -2.4381   -0.6302    0.0753 H   0  0  0  0  0  0  0  0  0  0  0  0
   -2.6925    1.0970   -0.2648 H   0  0  0  0  0  0  0  0  0  0  0  0
   -0.2274    1.4580   -0.3397 H   0  0  0  0  0  0  0  0  0  0  0  0
   -0.7737    0.3103   -1.5708 H   0  0  0  0  0  0  0  0  0  0  0  0
   -0.0875   -1.5874   -0.0404 H   0  0  0  0  0  0  0  0  0  0  0  0
    0.4958   -0.4123    1.1347 H   0  0  0  0  0  0  0  0  0  0  0  0
    1.6219   -0.7954   -1.7347 H   0  0  0  0  0  0  0  0  0  0  0  0
    2.8895    0.0219    0.9443 H   0  0  0  0  0  0  0  0  0  0  0  0
    3.7332   -0.2263   -0.6909 H   0  0  0  0  0  0  0  0  0  0  0  0
  1  2  1  0
  2  3  1  0
  3  4  1  0
  4  5  1  0
  5  6  2  3
  1  7  1  0
  2  8  1  0
  2  9  1  0
  3 10  1  0
  3 11  1  0
  4 12  1  0
  4 13  1  0
  5 14  1  0
  6 15  1  0
  6 16  1  0
M  END
>  <Energy>  (8) 
7.91507521805662

>  <Real charge>  (8) 
0

>  <Mult>  (8) 
1

$$$$
mol_42 49
     RDKit          3D

 16 15  0  0  0  0  0  0  0  0999 V2000
    2.2299    1.2585   -0.5039 O   0  0  0  0  0  0  0  0  0  0  0  0
    2.1129   -0.0462    0.0459 C   0  0  0  0  0  0  0  0  0  0  0  0
    0.7161   -0.6111   -0.1834 C   0  0  0  0  0  0  0  0  0  0  0  0
   -0.3598    0.2154    0.5258 C   0  0  0  0  0  0  0  0  0  0  0  0
   -1.7228   -0.3865    0.3288 C   0  0  0  0  0  0  0  0  0  0  0  0
   -2.7309    0.2307   -0.3002 C   0  0  0  0  0  0  0  0  0  0  0  0
    2.0511    1.1915   -1.4577 H   0  0  0  0  0  0  0  0  0  0  0  0
    2.8661   -0.6853   -0.4259 H   0  0  0  0  0  0  0  0  0  0  0  0
    2.3407    0.0113    1.1148 H   0  0  0  0  0  0  0  0  0  0  0  0
    0.5038   -0.6276   -1.2598 H   0  0  0  0  0  0  0  0  0  0  0  0
    0.6883   -1.6477    0.1736 H   0  0  0  0  0  0  0  0  0  0  0  0
   -0.1506    0.2534    1.6015 H   0  0  0  0  0  0  0  0  0  0  0  0
   -0.3407    1.2494    0.1611 H   0  0  0  0  0  0  0  0  0  0  0  0
   -1.8878   -1.3805    0.7398 H   0  0  0  0  0  0  0  0  0  0  0  0
   -2.6182    1.2258   -0.7197 H   0  0  0  0  0  0  0  0  0  0  0  0
   -3.6981   -0.2511   -0.4060 H   0  0  0  0  0  0  0  0  0  0  0  0
  1  2  1  0
  2  3  1  0
  3  4  1  0
  4  5  1  0
  5  6  2  3
  1  7  1  0
  2  8  1  0
  2  9  1  0
  3 10  1  0
  3 11  1  0
  4 12  1  0
  4 13  1  0
  5 14  1  0
  6 15  1  0
  6 16  1  0
M  END
>  <Energy>  (9) 
7.945316433074991

>  <Real charge>  (9) 
0

>  <Mult>  (9) 
1

$$$$
mol_42 41
     RDKit          3D

 16 15  0  0  0  0  0  0  0  0999 V2000
   -2.5242    0.2876    1.1058 O   0  0  0  0  0  0  0  0  0  0  0  0
   -2.0266    0.3665   -0.2225 C   0  0  0  0  0  0  0  0  0  0  0  0
   -0.6955   -0.3646   -0.3479 C   0  0  0  0  0  0  0  0  0  0  0  0
    0.3925    0.2757    0.5182 C   0  0  0  0  0  0  0  0  0  0  0  0
    1.7047   -0.4387    0.3554 C   0  0  0  0  0  0  0  0  0  0  0  0
    2.8112    0.1287   -0.1408 C   0  0  0  0  0  0  0  0  0  0  0  0
   -2.6675   -0.6526    1.3096 H   0  0  0  0  0  0  0  0  0  0  0  0
   -2.7705   -0.0740   -0.8941 H   0  0  0  0  0  0  0  0  0  0  0  0
   -1.9187    1.4235   -0.4854 H   0  0  0  0  0  0  0  0  0  0  0  0
   -0.8268   -1.4112   -0.0456 H   0  0  0  0  0  0  0  0  0  0  0  0
   -0.3849   -0.3619   -1.3997 H   0  0  0  0  0  0  0  0  0  0  0  0
    0.4955    1.3359    0.2567 H   0  0  0  0  0  0  0  0  0  0  0  0
    0.1075    0.2349    1.5760 H   0  0  0  0  0  0  0  0  0  0  0  0
    1.7439   -1.4773    0.6779 H   0  0  0  0  0  0  0  0  0  0  0  0
    3.7343   -0.4363   -0.2274 H   0  0  0  0  0  0  0  0  0  0  0  0
    2.8250    1.1637   -0.4683 H   0  0  0  0  0  0  0  0  0  0  0  0
  1  2  1  0
  2  3  1  0
  3  4  1  0
  4  5  1  0
  5  6  2  3
  1  7  1  0
  2  8  1  0
  2  9  1  0
  3 10  1  0
  3 11  1  0
  4 12  1  0
  4 13  1  0
  5 14  1  0
  6 15  1  0
  6 16  1  0
M  END
>  <Energy>  (10) 
7.946205161475774

>  <Real charge>  (10) 
0

>  <Mult>  (10) 
1

$$$$
mol_42 251
     RDKit          3D

 16 15  0  0  0  0  0  0  0  0999 V2000
    2.0581    0.9292   -0.0596 O   0  0  0  0  0  0  0  0  0  0  0  0
    1.4658   -0.1179    0.6977 C   0  0  0  0  0  0  0  0  0  0  0  0
    0.7218   -1.0719   -0.2301 C   0  0  0  0  0  0  0  0  0  0  0  0
   -0.4608   -0.4228   -0.9561 C   0  0  0  0  0  0  0  0  0  0  0  0
   -1.5966   -0.0823   -0.0312 C   0  0  0  0  0  0  0  0  0  0  0  0
   -2.0388    1.1632    0.1822 C   0  0  0  0  0  0  0  0  0  0  0  0
    2.4913    1.5264    0.5739 H   0  0  0  0  0  0  0  0  0  0  0  0
    2.2662   -0.6550    1.2166 H   0  0  0  0  0  0  0  0  0  0  0  0
    0.8004    0.3185    1.4486 H   0  0  0  0  0  0  0  0  0  0  0  0
    1.4213   -1.4393   -0.9913 H   0  0  0  0  0  0  0  0  0  0  0  0
    0.3775   -1.9413    0.3428 H   0  0  0  0  0  0  0  0  0  0  0  0
   -0.8415   -1.1283   -1.7050 H   0  0  0  0  0  0  0  0  0  0  0  0
   -0.1248    0.4621   -1.5097 H   0  0  0  0  0  0  0  0  0  0  0  0
   -2.0868   -0.9117    0.4744 H   0  0  0  0  0  0  0  0  0  0  0  0
   -1.5828    2.0190   -0.3068 H   0  0  0  0  0  0  0  0  0  0  0  0
   -2.8704    1.3521    0.8538 H   0  0  0  0  0  0  0  0  0  0  0  0
  1  2  1  0
  2  3  1  0
  3  4  1  0
  4  5  1  0
  5  6  2  3
  1  7  1  0
  2  8  1  0
  2  9  1  0
  3 10  1  0
  3 11  1  0
  4 12  1  0
  4 13  1  0
  5 14  1  0
  6 15  1  0
  6 16  1  0
M  END
>  <Energy>  (11) 
8.023150394081796

>  <Real charge>  (11) 
0

>  <Mult>  (11) 
1

$$$$
mol_42 287
     RDKit          3D

 16 15  0  0  0  0  0  0  0  0999 V2000
   -2.6869    1.3176    0.0518 O   0  0  0  0  0  0  0  0  0  0  0  0
   -1.7091    0.3425   -0.2909 C   0  0  0  0  0  0  0  0  0  0  0  0
   -0.6562    0.2636    0.8077 C   0  0  0  0  0  0  0  0  0  0  0  0
    0.3839   -0.8332    0.5789 C   0  0  0  0  0  0  0  0  0  0  0  0
    1.2568   -0.5841   -0.6185 C   0  0  0  0  0  0  0  0  0  0  0  0
    2.5601   -0.2862   -0.5447 C   0  0  0  0  0  0  0  0  0  0  0  0
   -2.2303    2.1731    0.1274 H   0  0  0  0  0  0  0  0  0  0  0  0
   -1.2745    0.6219   -1.2552 H   0  0  0  0  0  0  0  0  0  0  0  0
   -2.2209   -0.6176   -0.4091 H   0  0  0  0  0  0  0  0  0  0  0  0
   -0.1649    1.2392    0.9161 H   0  0  0  0  0  0  0  0  0  0  0  0
   -1.1605    0.0822    1.7656 H   0  0  0  0  0  0  0  0  0  0  0  0
   -0.1152   -1.8018    0.4553 H   0  0  0  0  0  0  0  0  0  0  0  0
    1.0016   -0.9184    1.4818 H   0  0  0  0  0  0  0  0  0  0  0  0
    0.7970   -0.6766   -1.6004 H   0  0  0  0  0  0  0  0  0  0  0  0
    3.1461   -0.1288   -1.4453 H   0  0  0  0  0  0  0  0  0  0  0  0
    3.0730   -0.1935    0.4078 H   0  0  0  0  0  0  0  0  0  0  0  0
  1  2  1  0
  2  3  1  0
  3  4  1  0
  4  5  1  0
  5  6  2  3
  1  7  1  0
  2  8  1  0
  2  9  1  0
  3 10  1  0
  3 11  1  0
  4 12  1  0
  4 13  1  0
  5 14  1  0
  6 15  1  0
  6 16  1  0
M  END
>  <Energy>  (12) 
8.103386689026362

>  <Real charge>  (12) 
0

>  <Mult>  (12) 
1

$$$$
mol_42 11
     RDKit          3D

 16 15  0  0  0  0  0  0  0  0999 V2000
   -2.3482   -0.0335    1.3138 O   0  0  0  0  0  0  0  0  0  0  0  0
   -1.9596    0.0835   -0.0471 C   0  0  0  0  0  0  0  0  0  0  0  0
   -0.4780    0.4295   -0.1419 C   0  0  0  0  0  0  0  0  0  0  0  0
    0.4088   -0.6774    0.4404 C   0  0  0  0  0  0  0  0  0  0  0  0
    1.8980   -0.4692    0.3361 C   0  0  0  0  0  0  0  0  0  0  0  0
    2.5417    0.5838   -0.1840 C   0  0  0  0  0  0  0  0  0  0  0  0
   -3.3019   -0.2239    1.3237 H   0  0  0  0  0  0  0  0  0  0  0  0
   -2.5578    0.8755   -0.5087 H   0  0  0  0  0  0  0  0  0  0  0  0
   -2.1751   -0.8607   -0.5575 H   0  0  0  0  0  0  0  0  0  0  0  0
   -0.2251    0.5993   -1.1951 H   0  0  0  0  0  0  0  0  0  0  0  0
   -0.2928    1.3625    0.4046 H   0  0  0  0  0  0  0  0  0  0  0  0
    0.1720   -1.6234   -0.0626 H   0  0  0  0  0  0  0  0  0  0  0  0
    0.1683   -0.8168    1.5015 H   0  0  0  0  0  0  0  0  0  0  0  0
    2.5003   -1.2816    0.7418 H   0  0  0  0  0  0  0  0  0  0  0  0
    2.0220    1.4387   -0.6024 H   0  0  0  0  0  0  0  0  0  0  0  0
    3.6273    0.6136   -0.1956 H   0  0  0  0  0  0  0  0  0  0  0  0
  1  2  1  0
  2  3  1  0
  3  4  1  0
  4  5  1  0
  5  6  2  3
  1  7  1  0
  2  8  1  0
  2  9  1  0
  3 10  1  0
  3 11  1  0
  4 12  1  0
  4 13  1  0
  5 14  1  0
  6 15  1  0
  6 16  1  0
M  END
>  <Energy>  (13) 
8.141431337758597

>  <Real charge>  (13) 
0

>  <Mult>  (13) 
1

$$$$
mol_42 38
     RDKit          3D

 16 15  0  0  0  0  0  0  0  0999 V2000
   -2.8909    0.2670   -0.5361 O   0  0  0  0  0  0  0  0  0  0  0  0
   -1.6665    0.3349    0.1849 C   0  0  0  0  0  0  0  0  0  0  0  0
   -0.7058   -0.7019   -0.3821 C   0  0  0  0  0  0  0  0  0  0  0  0
    0.6098   -0.8043    0.3900 C   0  0  0  0  0  0  0  0  0  0  0  0
    1.4543    0.4356    0.3030 C   0  0  0  0  0  0  0  0  0  0  0  0
    2.6257    0.4979   -0.3426 C   0  0  0  0  0  0  0  0  0  0  0  0
   -3.4775    0.9491   -0.1669 H   0  0  0  0  0  0  0  0  0  0  0  0
   -1.8765    0.1371    1.2407 H   0  0  0  0  0  0  0  0  0  0  0  0
   -1.2665    1.3480    0.0834 H   0  0  0  0  0  0  0  0  0  0  0  0
   -0.5128   -0.4813   -1.4400 H   0  0  0  0  0  0  0  0  0  0  0  0
   -1.1995   -1.6822   -0.3736 H   0  0  0  0  0  0  0  0  0  0  0  0
    0.4057   -1.0160    1.4465 H   0  0  0  0  0  0  0  0  0  0  0  0
    1.1696   -1.6667    0.0066 H   0  0  0  0  0  0  0  0  0  0  0  0
    1.0931    1.3247    0.8152 H   0  0  0  0  0  0  0  0  0  0  0  0
    3.0377   -0.3610   -0.8637 H   0  0  0  0  0  0  0  0  0  0  0  0
    3.2000    1.4191   -0.3654 H   0  0  0  0  0  0  0  0  0  0  0  0
  1  2  1  0
  2  3  1  0
  3  4  1  0
  4  5  1  0
  5  6  2  3
  1  7  1  0
  2  8  1  0
  2  9  1  0
  3 10  1  0
  3 11  1  0
  4 12  1  0
  4 13  1  0
  5 14  1  0
  6 15  1  0
  6 16  1  0
M  END
>  <Energy>  (14) 
8.160284841339418

>  <Real charge>  (14) 
0

>  <Mult>  (14) 
1

$$$$
mol_42 221
     RDKit          3D

 16 15  0  0  0  0  0  0  0  0999 V2000
    2.6970    0.4597    0.3755 O   0  0  0  0  0  0  0  0  0  0  0  0
    1.3743    0.0797    0.7368 C   0  0  0  0  0  0  0  0  0  0  0  0
    0.6999   -0.5533   -0.4739 C   0  0  0  0  0  0  0  0  0  0  0  0
   -0.7164   -1.0529   -0.1800 C   0  0  0  0  0  0  0  0  0  0  0  0
   -1.7972   -0.0304    0.0528 C   0  0  0  0  0  0  0  0  0  0  0  0
   -1.7408    1.2873   -0.1791 C   0  0  0  0  0  0  0  0  0  0  0  0
    3.1012    0.8630    1.1627 H   0  0  0  0  0  0  0  0  0  0  0  0
    0.8442    0.9726    1.0785 H   0  0  0  0  0  0  0  0  0  0  0  0
    1.4351   -0.6338    1.5647 H   0  0  0  0  0  0  0  0  0  0  0  0
    1.3112   -1.4041   -0.8030 H   0  0  0  0  0  0  0  0  0  0  0  0
    0.7063    0.1455   -1.3194 H   0  0  0  0  0  0  0  0  0  0  0  0
   -0.6796   -1.7098    0.6983 H   0  0  0  0  0  0  0  0  0  0  0  0
   -1.0407   -1.6820   -1.0186 H   0  0  0  0  0  0  0  0  0  0  0  0
   -2.7325   -0.4350    0.4394 H   0  0  0  0  0  0  0  0  0  0  0  0
   -0.8608    1.7745   -0.5854 H   0  0  0  0  0  0  0  0  0  0  0  0
   -2.6011    1.9190    0.0237 H   0  0  0  0  0  0  0  0  0  0  0  0
  1  2  1  0
  2  3  1  0
  3  4  1  0
  4  5  1  0
  5  6  2  3
  1  7  1  0
  2  8  1  0
  2  9  1  0
  3 10  1  0
  3 11  1  0
  4 12  1  0
  4 13  1  0
  5 14  1  0
  6 15  1  0
  6 16  1  0
M  END
>  <Energy>  (15) 
8.246408828355953

>  <Real charge>  (15) 
0

>  <Mult>  (15) 
1

$$$$
