mol_1055 21
     RDKit          3D

 27 29  0  0  0  0  0  0  0  0999 V2000
   -3.5703    0.9648    0.5011 C   0  0  0  0  0  0  0  0  0  0  0  0
   -2.4893    0.1488   -0.1631 C   0  0  0  0  0  0  0  0  0  0  0  0
   -2.8770   -0.7891   -1.1286 C   0  0  0  0  0  0  0  0  0  0  0  0
   -1.9265   -1.5653   -1.7701 C   0  0  0  0  0  0  0  0  0  0  0  0
   -0.5774   -1.4121   -1.4530 C   0  0  0  0  0  0  0  0  0  0  0  0
   -0.1231   -0.4818   -0.4866 C   0  0  0  0  0  0  0  0  0  0  0  0
   -1.1122    0.3093    0.1647 C   0  0  0  0  0  0  0  0  0  0  0  0
   -0.6894    1.2411    1.1286 C   0  0  0  0  0  0  0  0  0  0  0  0
    0.6550    1.4041    1.4547 C   0  0  0  0  0  0  0  0  0  0  0  0
    1.6386    0.6405    0.8297 C   0  0  0  0  0  0  0  0  0  0  0  0
    2.9861    0.8307    1.1829 C   0  0  0  0  0  0  0  0  0  0  0  0
    3.9984    0.0885    0.5823 C   0  0  0  0  0  0  0  0  0  0  0  0
    3.6724   -0.8537   -0.3798 C   0  0  0  0  0  0  0  0  0  0  0  0
    2.3346   -1.0502   -0.7379 C   0  0  0  0  0  0  0  0  0  0  0  0
    1.2717   -0.3147   -0.1502 C   0  0  0  0  0  0  0  0  0  0  0  0
   -3.4177    2.0309    0.3047 H   0  0  0  0  0  0  0  0  0  0  0  0
   -4.5644    0.7035    0.1222 H   0  0  0  0  0  0  0  0  0  0  0  0
   -3.5759    0.7829    1.5806 H   0  0  0  0  0  0  0  0  0  0  0  0
   -3.9257   -0.9191   -1.3858 H   0  0  0  0  0  0  0  0  0  0  0  0
   -2.2297   -2.2923   -2.5188 H   0  0  0  0  0  0  0  0  0  0  0  0
    0.1220   -2.0477   -1.9880 H   0  0  0  0  0  0  0  0  0  0  0  0
   -1.4077    1.8674    1.6522 H   0  0  0  0  0  0  0  0  0  0  0  0
    0.9214    2.1414    2.2090 H   0  0  0  0  0  0  0  0  0  0  0  0
    3.2587    1.5668    1.9367 H   0  0  0  0  0  0  0  0  0  0  0  0
    5.0349    0.2472    0.8661 H   0  0  0  0  0  0  0  0  0  0  0  0
    4.4533   -1.4402   -0.8566 H   0  0  0  0  0  0  0  0  0  0  0  0
    2.1389   -1.8016   -1.4971 H   0  0  0  0  0  0  0  0  0  0  0  0
  1  2  1  0
  2  3  2  0
  3  4  1  0
  4  5  2  0
  5  6  1  0
  6  7  2  0
  7  8  1  0
  8  9  2  0
  9 10  1  0
 10 11  2  0
 11 12  1  0
 12 13  2  0
 13 14  1  0
 14 15  2  0
  7  2  1  0
 15  6  1  0
 15 10  1  0
  1 16  1  0
  1 17  1  0
  1 18  1  0
  3 19  1  0
  4 20  1  0
  5 21  1  0
  8 22  1  0
  9 23  1  0
 11 24  1  0
 12 25  1  0
 13 26  1  0
 14 27  1  0
M  END
>  <Energy>  (1) 
58.06767106666712

>  <Real charge>  (1) 
0

>  <Mult>  (1) 
1

$$$$
