mol_28 347
     RDKit          3D

 31 31  0  0  0  0  0  0  0  0999 V2000
    3.9543    1.0045    0.9564 C   0  0  0  0  0  0  0  0  0  0  0  0
    3.0419    0.0845    0.1607 C   0  0  0  0  0  0  0  0  0  0  0  0
    1.5710    0.4729    0.3266 C   0  0  0  0  0  0  0  0  0  0  0  0
    0.6586   -0.4646   -0.4838 C   0  0  0  0  0  0  0  0  0  0  0  0
   -0.8556   -0.1591   -0.3575 C   0  0  0  0  0  0  0  0  0  0  0  0
   -1.6932   -1.0905   -1.2863 C   0  0  0  0  0  0  0  0  0  0  0  0
   -1.4800   -2.5870   -1.0859 C   0  0  0  0  0  0  0  0  0  0  0  0
   -1.1615    1.2576   -0.8300 C   0  0  0  0  0  0  0  0  0  0  0  0
   -0.4944    1.8602   -1.6675 O   0  0  0  0  0  0  0  0  0  0  0  0
   -2.2964    1.8271   -0.3205 N   0  0  0  0  0  0  0  0  0  0  0  0
   -2.8551    1.4906    0.8724 C   0  0  0  0  0  0  0  0  0  0  0  0
   -3.5891    2.2656    1.4765 O   0  0  0  0  0  0  0  0  0  0  0  0
   -2.4947    0.2938    1.4064 N   0  0  0  0  0  0  0  0  0  0  0  0
   -1.3413   -0.3595    1.0722 C   0  0  0  0  0  0  0  0  0  0  0  0
   -0.7890   -1.0912    1.8898 O   0  0  0  0  0  0  0  0  0  0  0  0
    3.7215    0.9594    2.0251 H   0  0  0  0  0  0  0  0  0  0  0  0
    3.8501    2.0427    0.6252 H   0  0  0  0  0  0  0  0  0  0  0  0
    4.9997    0.7089    0.8237 H   0  0  0  0  0  0  0  0  0  0  0  0
    3.3216    0.1291   -0.8982 H   0  0  0  0  0  0  0  0  0  0  0  0
    3.1945   -0.9485    0.4943 H   0  0  0  0  0  0  0  0  0  0  0  0
    1.3075    0.4336    1.3892 H   0  0  0  0  0  0  0  0  0  0  0  0
    1.4386    1.5108    0.0031 H   0  0  0  0  0  0  0  0  0  0  0  0
    0.9541   -0.4139   -1.5402 H   0  0  0  0  0  0  0  0  0  0  0  0
    0.8606   -1.4906   -0.1522 H   0  0  0  0  0  0  0  0  0  0  0  0
   -2.7645   -0.8855   -1.1576 H   0  0  0  0  0  0  0  0  0  0  0  0
   -1.4701   -0.8533   -2.3355 H   0  0  0  0  0  0  0  0  0  0  0  0
   -0.4617   -2.8879   -1.3473 H   0  0  0  0  0  0  0  0  0  0  0  0
   -1.6821   -2.8899   -0.0547 H   0  0  0  0  0  0  0  0  0  0  0  0
   -2.1608   -3.1474   -1.7355 H   0  0  0  0  0  0  0  0  0  0  0  0
   -2.4832    2.7720   -0.6291 H   0  0  0  0  0  0  0  0  0  0  0  0
   -2.8017    0.1557    2.3604 H   0  0  0  0  0  0  0  0  0  0  0  0
  1  2  1  0
  2  3  1  0
  3  4  1  0
  4  5  1  0
  5  6  1  0
  6  7  1  0
  5  8  1  0
  8  9  2  0
  8 10  1  0
 10 11  1  0
 11 12  2  0
 11 13  1  0
 13 14  1  0
 14 15  2  0
 14  5  1  0
  1 16  1  0
  1 17  1  0
  1 18  1  0
  2 19  1  0
  2 20  1  0
  3 21  1  0
  3 22  1  0
  4 23  1  0
  4 24  1  0
  6 25  1  0
  6 26  1  0
  7 27  1  0
  7 28  1  0
  7 29  1  0
 10 30  1  0
 13 31  1  0
M  END
>  <Energy>  (1) 
-128.89114340670574

>  <Real charge>  (1) 
0

>  <Mult>  (1) 
1

$$$$
mol_28 58
     RDKit          3D

 31 31  0  0  0  0  0  0  0  0999 V2000
    4.0987   -0.6842   -0.8172 C   0  0  0  0  0  0  0  0  0  0  0  0
    2.9369   -0.8203    0.1541 C   0  0  0  0  0  0  0  0  0  0  0  0
    1.6796   -0.1260   -0.3747 C   0  0  0  0  0  0  0  0  0  0  0  0
    0.5160   -0.2627    0.6167 C   0  0  0  0  0  0  0  0  0  0  0  0
   -0.8472    0.3302    0.1407 C   0  0  0  0  0  0  0  0  0  0  0  0
   -0.7015    1.8224   -0.2460 C   0  0  0  0  0  0  0  0  0  0  0  0
   -2.0100    2.5148   -0.6268 C   0  0  0  0  0  0  0  0  0  0  0  0
   -1.7901    0.1708    1.3284 C   0  0  0  0  0  0  0  0  0  0  0  0
   -1.9691    1.0352    2.1830 O   0  0  0  0  0  0  0  0  0  0  0  0
   -2.3966   -1.0494    1.4519 N   0  0  0  0  0  0  0  0  0  0  0  0
   -2.6375   -1.8951    0.4148 C   0  0  0  0  0  0  0  0  0  0  0  0
   -3.5165   -2.7483    0.4758 O   0  0  0  0  0  0  0  0  0  0  0  0
   -1.9215   -1.6950   -0.7231 N   0  0  0  0  0  0  0  0  0  0  0  0
   -1.3376   -0.4999   -1.0387 C   0  0  0  0  0  0  0  0  0  0  0  0
   -1.1949   -0.1758   -2.2149 O   0  0  0  0  0  0  0  0  0  0  0  0
    4.9857   -1.1876   -0.4201 H   0  0  0  0  0  0  0  0  0  0  0  0
    3.8563   -1.1358   -1.7845 H   0  0  0  0  0  0  0  0  0  0  0  0
    4.3508    0.3682   -0.9825 H   0  0  0  0  0  0  0  0  0  0  0  0
    2.7326   -1.8841    0.3221 H   0  0  0  0  0  0  0  0  0  0  0  0
    3.2230   -0.3877    1.1199 H   0  0  0  0  0  0  0  0  0  0  0  0
    1.9069    0.9319   -0.5450 H   0  0  0  0  0  0  0  0  0  0  0  0
    1.4072   -0.5641   -1.3411 H   0  0  0  0  0  0  0  0  0  0  0  0
    0.3922   -1.3275    0.8584 H   0  0  0  0  0  0  0  0  0  0  0  0
    0.8067    0.2220    1.5594 H   0  0  0  0  0  0  0  0  0  0  0  0
   -0.0225    1.9280   -1.1005 H   0  0  0  0  0  0  0  0  0  0  0  0
   -0.2486    2.3785    0.5848 H   0  0  0  0  0  0  0  0  0  0  0  0
   -2.4934    2.0280   -1.4785 H   0  0  0  0  0  0  0  0  0  0  0  0
   -2.7200    2.5340    0.2044 H   0  0  0  0  0  0  0  0  0  0  0  0
   -1.8088    3.5534   -0.9100 H   0  0  0  0  0  0  0  0  0  0  0  0
   -3.0306   -1.1410    2.2345 H   0  0  0  0  0  0  0  0  0  0  0  0
   -2.2461   -2.2328   -1.5162 H   0  0  0  0  0  0  0  0  0  0  0  0
  1  2  1  0
  2  3  1  0
  3  4  1  0
  4  5  1  0
  5  6  1  0
  6  7  1  0
  5  8  1  0
  8  9  2  0
  8 10  1  0
 10 11  1  0
 11 12  2  0
 11 13  1  0
 13 14  1  0
 14 15  2  0
 14  5  1  0
  1 16  1  0
  1 17  1  0
  1 18  1  0
  2 19  1  0
  2 20  1  0
  3 21  1  0
  3 22  1  0
  4 23  1  0
  4 24  1  0
  6 25  1  0
  6 26  1  0
  7 27  1  0
  7 28  1  0
  7 29  1  0
 10 30  1  0
 13 31  1  0
M  END
>  <Energy>  (2) 
-128.84113707373393

>  <Real charge>  (2) 
0

>  <Mult>  (2) 
1

$$$$
mol_28 263
     RDKit          3D

 31 31  0  0  0  0  0  0  0  0999 V2000
    4.0699   -1.3192   -0.2779 C   0  0  0  0  0  0  0  0  0  0  0  0
    3.1988   -0.1155    0.0448 C   0  0  0  0  0  0  0  0  0  0  0  0
    1.7114   -0.4486   -0.0865 C   0  0  0  0  0  0  0  0  0  0  0  0
    0.8404    0.7750    0.2418 C   0  0  0  0  0  0  0  0  0  0  0  0
   -0.6901    0.5183    0.1313 C   0  0  0  0  0  0  0  0  0  0  0  0
   -1.4204    1.8439    0.4921 C   0  0  0  0  0  0  0  0  0  0  0  0
   -2.9450    1.8076    0.4447 C   0  0  0  0  0  0  0  0  0  0  0  0
   -1.0390    0.1520   -1.3013 C   0  0  0  0  0  0  0  0  0  0  0  0
   -0.5190    0.6841   -2.2804 O   0  0  0  0  0  0  0  0  0  0  0  0
   -2.0194   -0.7823   -1.4764 N   0  0  0  0  0  0  0  0  0  0  0  0
   -2.4504   -1.6596   -0.5336 C   0  0  0  0  0  0  0  0  0  0  0  0
   -3.1041   -2.6531   -0.8332 O   0  0  0  0  0  0  0  0  0  0  0  0
   -2.0735   -1.4178    0.7486 N   0  0  0  0  0  0  0  0  0  0  0  0
   -1.0982   -0.5445    1.1373 C   0  0  0  0  0  0  0  0  0  0  0  0
   -0.6297   -0.6160    2.2719 O   0  0  0  0  0  0  0  0  0  0  0  0
    3.9000   -1.6628   -1.3032 H   0  0  0  0  0  0  0  0  0  0  0  0
    5.1282   -1.0588   -0.1778 H   0  0  0  0  0  0  0  0  0  0  0  0
    3.8585   -2.1501    0.4028 H   0  0  0  0  0  0  0  0  0  0  0  0
    3.4162    0.2223    1.0647 H   0  0  0  0  0  0  0  0  0  0  0  0
    3.4575    0.7070   -0.6322 H   0  0  0  0  0  0  0  0  0  0  0  0
    1.5099   -0.7939   -1.1068 H   0  0  0  0  0  0  0  0  0  0  0  0
    1.4687   -1.2778    0.5875 H   0  0  0  0  0  0  0  0  0  0  0  0
    1.0847    1.1135    1.2578 H   0  0  0  0  0  0  0  0  0  0  0  0
    1.1257    1.5956   -0.4303 H   0  0  0  0  0  0  0  0  0  0  0  0
   -1.0855    2.6392   -0.1872 H   0  0  0  0  0  0  0  0  0  0  0  0
   -1.1266    2.1564    1.5031 H   0  0  0  0  0  0  0  0  0  0  0  0
   -3.3136    1.5702   -0.5571 H   0  0  0  0  0  0  0  0  0  0  0  0
   -3.3552    1.0819    1.1525 H   0  0  0  0  0  0  0  0  0  0  0  0
   -3.3453    2.7904    0.7157 H   0  0  0  0  0  0  0  0  0  0  0  0
   -2.2307   -1.0281   -2.4341 H   0  0  0  0  0  0  0  0  0  0  0  0
   -2.3244   -2.1293    1.4216 H   0  0  0  0  0  0  0  0  0  0  0  0
  1  2  1  0
  2  3  1  0
  3  4  1  0
  4  5  1  0
  5  6  1  0
  6  7  1  0
  5  8  1  0
  8  9  2  0
  8 10  1  0
 10 11  1  0
 11 12  2  0
 11 13  1  0
 13 14  1  0
 14 15  2  0
 14  5  1  0
  1 16  1  0
  1 17  1  0
  1 18  1  0
  2 19  1  0
  2 20  1  0
  3 21  1  0
  3 22  1  0
  4 23  1  0
  4 24  1  0
  6 25  1  0
  6 26  1  0
  7 27  1  0
  7 28  1  0
  7 29  1  0
 10 30  1  0
 13 31  1  0
M  END
>  <Energy>  (3) 
-128.49191210149436

>  <Real charge>  (3) 
0

>  <Mult>  (3) 
1

$$$$
mol_28 303
     RDKit          3D

 31 31  0  0  0  0  0  0  0  0999 V2000
    4.0287   -0.9378    0.2577 C   0  0  0  0  0  0  0  0  0  0  0  0
    3.0462    0.2215    0.2077 C   0  0  0  0  0  0  0  0  0  0  0  0
    1.6029   -0.2722    0.0816 C   0  0  0  0  0  0  0  0  0  0  0  0
    0.6198    0.9067    0.0320 C   0  0  0  0  0  0  0  0  0  0  0  0
   -0.8871    0.5358   -0.0962 C   0  0  0  0  0  0  0  0  0  0  0  0
   -1.6998    1.8607   -0.1288 C   0  0  0  0  0  0  0  0  0  0  0  0
   -3.2102    1.6707   -0.2529 C   0  0  0  0  0  0  0  0  0  0  0  0
   -1.0903   -0.2113   -1.4034 C   0  0  0  0  0  0  0  0  0  0  0  0
   -1.1417    0.3459   -2.4985 O   0  0  0  0  0  0  0  0  0  0  0  0
   -1.1652   -1.5728   -1.3300 N   0  0  0  0  0  0  0  0  0  0  0  0
   -1.4236   -2.2907   -0.2066 C   0  0  0  0  0  0  0  0  0  0  0  0
   -1.7607   -3.4685   -0.2615 O   0  0  0  0  0  0  0  0  0  0  0  0
   -1.3479   -1.6281    0.9765 N   0  0  0  0  0  0  0  0  0  0  0  0
   -1.2906   -0.2720    1.1256 C   0  0  0  0  0  0  0  0  0  0  0  0
   -1.5157    0.2325    2.2243 O   0  0  0  0  0  0  0  0  0  0  0  0
    3.9674   -1.5435   -0.6521 H   0  0  0  0  0  0  0  0  0  0  0  0
    5.0531   -0.5629    0.3478 H   0  0  0  0  0  0  0  0  0  0  0  0
    3.8273   -1.5860    1.1166 H   0  0  0  0  0  0  0  0  0  0  0  0
    3.2950    0.8669   -0.6427 H   0  0  0  0  0  0  0  0  0  0  0  0
    3.1557    0.8247    1.1165 H   0  0  0  0  0  0  0  0  0  0  0  0
    1.3743   -0.9202    0.9346 H   0  0  0  0  0  0  0  0  0  0  0  0
    1.5138   -0.8779   -0.8267 H   0  0  0  0  0  0  0  0  0  0  0  0
    0.7629    1.5085    0.9401 H   0  0  0  0  0  0  0  0  0  0  0  0
    0.9017    1.5506   -0.8125 H   0  0  0  0  0  0  0  0  0  0  0  0
   -1.3658    2.4843   -0.9683 H   0  0  0  0  0  0  0  0  0  0  0  0
   -1.5043    2.4423    0.7816 H   0  0  0  0  0  0  0  0  0  0  0  0
   -3.6171    1.1063    0.5912 H   0  0  0  0  0  0  0  0  0  0  0  0
   -3.7063    2.6467   -0.2688 H   0  0  0  0  0  0  0  0  0  0  0  0
   -3.4771    1.1488   -1.1765 H   0  0  0  0  0  0  0  0  0  0  0  0
   -1.3145   -2.0565   -2.2051 H   0  0  0  0  0  0  0  0  0  0  0  0
   -1.6312   -2.1525    1.7931 H   0  0  0  0  0  0  0  0  0  0  0  0
  1  2  1  0
  2  3  1  0
  3  4  1  0
  4  5  1  0
  5  6  1  0
  6  7  1  0
  5  8  1  0
  8  9  2  0
  8 10  1  0
 10 11  1  0
 11 12  2  0
 11 13  1  0
 13 14  1  0
 14 15  2  0
 14  5  1  0
  1 16  1  0
  1 17  1  0
  1 18  1  0
  2 19  1  0
  2 20  1  0
  3 21  1  0
  3 22  1  0
  4 23  1  0
  4 24  1  0
  6 25  1  0
  6 26  1  0
  7 27  1  0
  7 28  1  0
  7 29  1  0
 10 30  1  0
 13 31  1  0
M  END
>  <Energy>  (4) 
-128.4448118952936

>  <Real charge>  (4) 
0

>  <Mult>  (4) 
1

$$$$
mol_28 222
     RDKit          3D

 31 31  0  0  0  0  0  0  0  0999 V2000
    3.8011   -0.1473   -0.3208 C   0  0  0  0  0  0  0  0  0  0  0  0
    2.7943   -0.2373   -1.4571 C   0  0  0  0  0  0  0  0  0  0  0  0
    1.4264    0.3599   -1.1118 C   0  0  0  0  0  0  0  0  0  0  0  0
    0.6962   -0.4123    0.0021 C   0  0  0  0  0  0  0  0  0  0  0  0
   -0.7559    0.0623    0.2681 C   0  0  0  0  0  0  0  0  0  0  0  0
   -1.3758   -0.6911    1.4847 C   0  0  0  0  0  0  0  0  0  0  0  0
   -1.3652   -2.2132    1.3926 C   0  0  0  0  0  0  0  0  0  0  0  0
   -0.7804    1.5367    0.6544 C   0  0  0  0  0  0  0  0  0  0  0  0
    0.1511    2.1161    1.2079 O   0  0  0  0  0  0  0  0  0  0  0  0
   -1.9549    2.1979    0.4202 N   0  0  0  0  0  0  0  0  0  0  0  0
   -2.8617    1.8409   -0.5280 C   0  0  0  0  0  0  0  0  0  0  0  0
   -3.6629    2.6500   -0.9839 O   0  0  0  0  0  0  0  0  0  0  0  0
   -2.7828    0.5726   -1.0101 N   0  0  0  0  0  0  0  0  0  0  0  0
   -1.6473   -0.1855   -0.9420 C   0  0  0  0  0  0  0  0  0  0  0  0
   -1.4217   -1.0355   -1.7996 O   0  0  0  0  0  0  0  0  0  0  0  0
    3.9094    0.8845    0.0279 H   0  0  0  0  0  0  0  0  0  0  0  0
    3.5055   -0.7711    0.5278 H   0  0  0  0  0  0  0  0  0  0  0  0
    4.7821   -0.4949   -0.6604 H   0  0  0  0  0  0  0  0  0  0  0  0
    3.1983    0.3007   -2.3231 H   0  0  0  0  0  0  0  0  0  0  0  0
    2.6790   -1.2842   -1.7611 H   0  0  0  0  0  0  0  0  0  0  0  0
    0.8207    0.3577   -2.0248 H   0  0  0  0  0  0  0  0  0  0  0  0
    1.5594    1.4094   -0.8280 H   0  0  0  0  0  0  0  0  0  0  0  0
    1.2735   -0.3295    0.9313 H   0  0  0  0  0  0  0  0  0  0  0  0
    0.6956   -1.4738   -0.2745 H   0  0  0  0  0  0  0  0  0  0  0  0
   -0.8428   -0.4028    2.4009 H   0  0  0  0  0  0  0  0  0  0  0  0
   -2.4162   -0.3726    1.6345 H   0  0  0  0  0  0  0  0  0  0  0  0
   -1.8800   -2.6395    2.2601 H   0  0  0  0  0  0  0  0  0  0  0  0
   -0.3461   -2.6100    1.3931 H   0  0  0  0  0  0  0  0  0  0  0  0
   -1.8798   -2.5677    0.4951 H   0  0  0  0  0  0  0  0  0  0  0  0
   -1.9569    3.1788    0.6666 H   0  0  0  0  0  0  0  0  0  0  0  0
   -3.3619    0.4007   -1.8217 H   0  0  0  0  0  0  0  0  0  0  0  0
  1  2  1  0
  2  3  1  0
  3  4  1  0
  4  5  1  0
  5  6  1  0
  6  7  1  0
  5  8  1  0
  8  9  2  0
  8 10  1  0
 10 11  1  0
 11 12  2  0
 11 13  1  0
 13 14  1  0
 14 15  2  0
 14  5  1  0
  1 16  1  0
  1 17  1  0
  1 18  1  0
  2 19  1  0
  2 20  1  0
  3 21  1  0
  3 22  1  0
  4 23  1  0
  4 24  1  0
  6 25  1  0
  6 26  1  0
  7 27  1  0
  7 28  1  0
  7 29  1  0
 10 30  1  0
 13 31  1  0
M  END
>  <Energy>  (5) 
-128.08781934807612

>  <Real charge>  (5) 
0

>  <Mult>  (5) 
1

$$$$
mol_28 243
     RDKit          3D

 31 31  0  0  0  0  0  0  0  0999 V2000
    3.7510    0.6840   -0.3136 C   0  0  0  0  0  0  0  0  0  0  0  0
    2.8148    0.1607   -1.3919 C   0  0  0  0  0  0  0  0  0  0  0  0
    1.3441    0.5173   -1.1525 C   0  0  0  0  0  0  0  0  0  0  0  0
    0.7641   -0.1363    0.1102 C   0  0  0  0  0  0  0  0  0  0  0  0
   -0.7783    0.0215    0.2983 C   0  0  0  0  0  0  0  0  0  0  0  0
   -1.1952    1.5118    0.2473 C   0  0  0  0  0  0  0  0  0  0  0  0
   -2.6760    1.7717    0.5228 C   0  0  0  0  0  0  0  0  0  0  0  0
   -1.4732   -0.7846   -0.7919 C   0  0  0  0  0  0  0  0  0  0  0  0
   -1.9164   -0.2999   -1.8299 O   0  0  0  0  0  0  0  0  0  0  0  0
   -1.5414   -2.1338   -0.5818 N   0  0  0  0  0  0  0  0  0  0  0  0
   -1.6499   -2.6887    0.6542 C   0  0  0  0  0  0  0  0  0  0  0  0
   -2.1712   -3.7866    0.8189 O   0  0  0  0  0  0  0  0  0  0  0  0
   -1.2360   -1.9349    1.7074 N   0  0  0  0  0  0  0  0  0  0  0  0
   -1.0784   -0.5763    1.6687 C   0  0  0  0  0  0  0  0  0  0  0  0
   -1.1167    0.0767    2.7088 O   0  0  0  0  0  0  0  0  0  0  0  0
    3.5662    0.1978    0.6486 H   0  0  0  0  0  0  0  0  0  0  0  0
    3.6365    1.7648   -0.1841 H   0  0  0  0  0  0  0  0  0  0  0  0
    4.7912    0.4843   -0.5906 H   0  0  0  0  0  0  0  0  0  0  0  0
    2.9263   -0.9266   -1.4757 H   0  0  0  0  0  0  0  0  0  0  0  0
    3.1217    0.5851   -2.3554 H   0  0  0  0  0  0  0  0  0  0  0  0
    0.7749    0.1962   -2.0318 H   0  0  0  0  0  0  0  0  0  0  0  0
    1.2510    1.6073   -1.0895 H   0  0  0  0  0  0  0  0  0  0  0  0
    1.2675    0.2891    0.9886 H   0  0  0  0  0  0  0  0  0  0  0  0
    1.0295   -1.2024    0.1015 H   0  0  0  0  0  0  0  0  0  0  0  0
   -0.6057    2.0868    0.9729 H   0  0  0  0  0  0  0  0  0  0  0  0
   -0.9733    1.9334   -0.7404 H   0  0  0  0  0  0  0  0  0  0  0  0
   -2.9665    1.4580    1.5290 H   0  0  0  0  0  0  0  0  0  0  0  0
   -3.3189    1.2550   -0.1954 H   0  0  0  0  0  0  0  0  0  0  0  0
   -2.8838    2.8438    0.4408 H   0  0  0  0  0  0  0  0  0  0  0  0
   -2.0096   -2.6549   -1.3117 H   0  0  0  0  0  0  0  0  0  0  0  0
   -1.4481   -2.3203    2.6181 H   0  0  0  0  0  0  0  0  0  0  0  0
  1  2  1  0
  2  3  1  0
  3  4  1  0
  4  5  1  0
  5  6  1  0
  6  7  1  0
  5  8  1  0
  8  9  2  0
  8 10  1  0
 10 11  1  0
 11 12  2  0
 11 13  1  0
 13 14  1  0
 14 15  2  0
 14  5  1  0
  1 16  1  0
  1 17  1  0
  1 18  1  0
  2 19  1  0
  2 20  1  0
  3 21  1  0
  3 22  1  0
  4 23  1  0
  4 24  1  0
  6 25  1  0
  6 26  1  0
  7 27  1  0
  7 28  1  0
  7 29  1  0
 10 30  1  0
 13 31  1  0
M  END
>  <Energy>  (6) 
-128.05280587266725

>  <Real charge>  (6) 
0

>  <Mult>  (6) 
1

$$$$
mol_28 526
     RDKit          3D

 31 31  0  0  0  0  0  0  0  0999 V2000
    3.7101   -0.1566    0.5320 C   0  0  0  0  0  0  0  0  0  0  0  0
    2.9687   -0.8568   -0.5963 C   0  0  0  0  0  0  0  0  0  0  0  0
    1.4665   -1.0140   -0.3391 C   0  0  0  0  0  0  0  0  0  0  0  0
    0.7195    0.3315   -0.2915 C   0  0  0  0  0  0  0  0  0  0  0  0
   -0.8198    0.2086   -0.1494 C   0  0  0  0  0  0  0  0  0  0  0  0
   -1.4994    1.6117   -0.1920 C   0  0  0  0  0  0  0  0  0  0  0  0
   -0.9975    2.6205    0.8355 C   0  0  0  0  0  0  0  0  0  0  0  0
   -1.4109   -0.5567   -1.3281 C   0  0  0  0  0  0  0  0  0  0  0  0
   -0.9043   -0.5903   -2.4470 O   0  0  0  0  0  0  0  0  0  0  0  0
   -2.6137   -1.1682   -1.1028 N   0  0  0  0  0  0  0  0  0  0  0  0
   -3.0490   -1.5778    0.1184 C   0  0  0  0  0  0  0  0  0  0  0  0
   -3.8938   -2.4595    0.2340 O   0  0  0  0  0  0  0  0  0  0  0  0
   -2.4437   -1.0291    1.2047 N   0  0  0  0  0  0  0  0  0  0  0  0
   -1.2012   -0.4604    1.1645 C   0  0  0  0  0  0  0  0  0  0  0  0
   -0.4879   -0.4682    2.1646 O   0  0  0  0  0  0  0  0  0  0  0  0
    4.7875   -0.1707    0.3382 H   0  0  0  0  0  0  0  0  0  0  0  0
    3.4055    0.8898    0.6244 H   0  0  0  0  0  0  0  0  0  0  0  0
    3.5317   -0.6561    1.4895 H   0  0  0  0  0  0  0  0  0  0  0  0
    3.1323   -0.3133   -1.5340 H   0  0  0  0  0  0  0  0  0  0  0  0
    3.4028   -1.8551   -0.7294 H   0  0  0  0  0  0  0  0  0  0  0  0
    1.0583   -1.6427   -1.1375 H   0  0  0  0  0  0  0  0  0  0  0  0
    1.3195   -1.5645    0.5967 H   0  0  0  0  0  0  0  0  0  0  0  0
    0.9571    0.8981   -1.2014 H   0  0  0  0  0  0  0  0  0  0  0  0
    1.1172    0.9083    0.5509 H   0  0  0  0  0  0  0  0  0  0  0  0
   -1.3667    2.0497   -1.1906 H   0  0  0  0  0  0  0  0  0  0  0  0
   -2.5843    1.5083   -0.0556 H   0  0  0  0  0  0  0  0  0  0  0  0
    0.0476    2.8900    0.6592 H   0  0  0  0  0  0  0  0  0  0  0  0
   -1.5858    3.5418    0.7665 H   0  0  0  0  0  0  0  0  0  0  0  0
   -1.0953    2.2411    1.8565 H   0  0  0  0  0  0  0  0  0  0  0  0
   -2.9906   -1.6848   -1.8863 H   0  0  0  0  0  0  0  0  0  0  0  0
   -2.6807   -1.4746    2.0816 H   0  0  0  0  0  0  0  0  0  0  0  0
  1  2  1  0
  2  3  1  0
  3  4  1  0
  4  5  1  0
  5  6  1  0
  6  7  1  0
  5  8  1  0
  8  9  2  0
  8 10  1  0
 10 11  1  0
 11 12  2  0
 11 13  1  0
 13 14  1  0
 14 15  2  0
 14  5  1  0
  1 16  1  0
  1 17  1  0
  1 18  1  0
  2 19  1  0
  2 20  1  0
  3 21  1  0
  3 22  1  0
  4 23  1  0
  4 24  1  0
  6 25  1  0
  6 26  1  0
  7 27  1  0
  7 28  1  0
  7 29  1  0
 10 30  1  0
 13 31  1  0
M  END
>  <Energy>  (7) 
-128.02686039832707

>  <Real charge>  (7) 
0

>  <Mult>  (7) 
1

$$$$
mol_28 329
     RDKit          3D

 31 31  0  0  0  0  0  0  0  0999 V2000
    3.6405    0.7300    0.2275 C   0  0  0  0  0  0  0  0  0  0  0  0
    3.0927   -0.6889    0.2362 C   0  0  0  0  0  0  0  0  0  0  0  0
    1.6652   -0.7994   -0.3098 C   0  0  0  0  0  0  0  0  0  0  0  0
    0.6211   -0.1261    0.5927 C   0  0  0  0  0  0  0  0  0  0  0  0
   -0.8548   -0.2024    0.0870 C   0  0  0  0  0  0  0  0  0  0  0  0
   -1.2972   -1.6704   -0.1294 C   0  0  0  0  0  0  0  0  0  0  0  0
   -2.7645   -1.8445   -0.5214 C   0  0  0  0  0  0  0  0  0  0  0  0
   -1.6875    0.4542    1.1829 C   0  0  0  0  0  0  0  0  0  0  0  0
   -2.2061   -0.1607    2.1116 O   0  0  0  0  0  0  0  0  0  0  0  0
   -1.7754    1.8187    1.1322 N   0  0  0  0  0  0  0  0  0  0  0  0
   -1.6389    2.5564   -0.0018 C   0  0  0  0  0  0  0  0  0  0  0  0
   -2.1143    3.6833   -0.0933 O   0  0  0  0  0  0  0  0  0  0  0  0
   -1.0295    1.9562   -1.0581 N   0  0  0  0  0  0  0  0  0  0  0  0
   -0.9537    0.5992   -1.2046 C   0  0  0  0  0  0  0  0  0  0  0  0
   -0.9224    0.1015   -2.3272 O   0  0  0  0  0  0  0  0  0  0  0  0
    3.1032    1.3738    0.9296 H   0  0  0  0  0  0  0  0  0  0  0  0
    3.5716    1.1723   -0.7713 H   0  0  0  0  0  0  0  0  0  0  0  0
    4.6944    0.7266    0.5241 H   0  0  0  0  0  0  0  0  0  0  0  0
    3.1370   -1.0928    1.2543 H   0  0  0  0  0  0  0  0  0  0  0  0
    3.7477   -1.3153   -0.3815 H   0  0  0  0  0  0  0  0  0  0  0  0
    1.4348   -1.8660   -0.4047 H   0  0  0  0  0  0  0  0  0  0  0  0
    1.6318   -0.3720   -1.3180 H   0  0  0  0  0  0  0  0  0  0  0  0
    0.8996    0.9260    0.7318 H   0  0  0  0  0  0  0  0  0  0  0  0
    0.6803   -0.5828    1.5905 H   0  0  0  0  0  0  0  0  0  0  0  0
   -0.6978   -2.1348   -0.9213 H   0  0  0  0  0  0  0  0  0  0  0  0
   -1.1149   -2.2515    0.7836 H   0  0  0  0  0  0  0  0  0  0  0  0
   -2.9801   -2.9063   -0.6812 H   0  0  0  0  0  0  0  0  0  0  0  0
   -3.0016   -1.3161   -1.4491 H   0  0  0  0  0  0  0  0  0  0  0  0
   -3.4421   -1.4869    0.2586 H   0  0  0  0  0  0  0  0  0  0  0  0
   -2.3410    2.2442    1.8546 H   0  0  0  0  0  0  0  0  0  0  0  0
   -1.0982    2.4745   -1.9243 H   0  0  0  0  0  0  0  0  0  0  0  0
  1  2  1  0
  2  3  1  0
  3  4  1  0
  4  5  1  0
  5  6  1  0
  6  7  1  0
  5  8  1  0
  8  9  2  0
  8 10  1  0
 10 11  1  0
 11 12  2  0
 11 13  1  0
 13 14  1  0
 14 15  2  0
 14  5  1  0
  1 16  1  0
  1 17  1  0
  1 18  1  0
  2 19  1  0
  2 20  1  0
  3 21  1  0
  3 22  1  0
  4 23  1  0
  4 24  1  0
  6 25  1  0
  6 26  1  0
  7 27  1  0
  7 28  1  0
  7 29  1  0
 10 30  1  0
 13 31  1  0
M  END
>  <Energy>  (8) 
-127.90949910342488

>  <Real charge>  (8) 
0

>  <Mult>  (8) 
1

$$$$
