mol_508 64
     RDKit          3D

 18 19  0  0  0  0  0  0  0  0999 V2000
    2.9109   -1.1831    0.4629 C   0  0  0  0  0  0  0  0  0  0  0  0
    1.4953   -1.3011    0.3836 O   0  0  0  0  0  0  0  0  0  0  0  0
    0.8473   -0.1093    0.0853 C   0  0  0  0  0  0  0  0  0  0  0  0
    1.5979    0.9990   -0.0925 N   0  0  0  0  0  0  0  0  0  0  0  0
    0.9124    2.1043   -0.3753 C   0  0  0  0  0  0  0  0  0  0  0  0
   -0.4129    2.1910   -0.4910 N   0  0  0  0  0  0  0  0  0  0  0  0
   -1.1185    1.0768   -0.3087 C   0  0  0  0  0  0  0  0  0  0  0  0
   -2.4476    1.1770   -0.4276 N   0  0  0  0  0  0  0  0  0  0  0  0
   -3.1887    0.0607   -0.2474 C   0  0  0  0  0  0  0  0  0  0  0  0
   -2.6234   -1.1570    0.0502 C   0  0  0  0  0  0  0  0  0  0  0  0
   -1.2925   -1.2974    0.1777 N   0  0  0  0  0  0  0  0  0  0  0  0
   -0.5397   -0.1655   -0.0049 C   0  0  0  0  0  0  0  0  0  0  0  0
    3.3151   -2.1719    0.7006 H   0  0  0  0  0  0  0  0  0  0  0  0
    3.2078   -0.5007    1.2668 H   0  0  0  0  0  0  0  0  0  0  0  0
    3.3375   -0.8714   -0.4967 H   0  0  0  0  0  0  0  0  0  0  0  0
    1.4804    3.0165   -0.5253 H   0  0  0  0  0  0  0  0  0  0  0  0
   -4.2611    0.1817   -0.3517 H   0  0  0  0  0  0  0  0  0  0  0  0
   -3.2203   -2.0499    0.1940 H   0  0  0  0  0  0  0  0  0  0  0  0
  1  2  1  0
  2  3  1  0
  3  4  2  0
  4  5  1  0
  5  6  2  0
  6  7  1  0
  7  8  2  0
  8  9  1  0
  9 10  2  0
 10 11  1  0
 11 12  2  0
 12  3  1  0
 12  7  1  0
  1 13  1  0
  1 14  1  0
  1 15  1  0
  5 16  1  0
  9 17  1  0
 10 18  1  0
M  END
>  <Energy>  (1) 
65.90710839996056

>  <Real charge>  (1) 
0

>  <Mult>  (1) 
1

$$$$
