mol_970 303
     RDKit          3D

 48 47  0  0  0  0  0  0  0  0999 V2000
   -6.5949    1.8676    0.6406 C   0  0  0  0  0  0  0  0  0  0  0  0
   -6.0732    0.5639    1.2236 C   0  0  0  0  0  0  0  0  0  0  0  0
   -5.3325   -0.2633    0.1721 C   0  0  0  0  0  0  0  0  0  0  0  0
   -4.8061   -1.5711    0.7665 C   0  0  0  0  0  0  0  0  0  0  0  0
   -4.1555   -2.4938   -0.2687 C   0  0  0  0  0  0  0  0  0  0  0  0
   -2.9527   -1.9138   -1.0191 C   0  0  0  0  0  0  0  0  0  0  0  0
   -1.7976   -1.5107   -0.1004 C   0  0  0  0  0  0  0  0  0  0  0  0
   -0.5828   -1.0484   -0.9082 C   0  0  0  0  0  0  0  0  0  0  0  0
    0.5717   -0.6395    0.0081 C   0  0  0  0  0  0  0  0  0  0  0  0
    1.7859   -0.1774   -0.7992 C   0  0  0  0  0  0  0  0  0  0  0  0
    2.9402    0.2318    0.1172 C   0  0  0  0  0  0  0  0  0  0  0  0
    4.1545    0.6939   -0.6901 C   0  0  0  0  0  0  0  0  0  0  0  0
    5.3091    1.1034    0.2264 C   0  0  0  0  0  0  0  0  0  0  0  0
    6.5234    1.5672   -0.5834 C   0  0  0  0  0  0  0  0  0  0  0  0
    7.6754    2.0128    0.3091 C   0  0  0  0  0  0  0  0  0  0  0  0
    8.1509    0.9132    1.0720 O   0  0  0  0  0  0  0  0  0  0  0  0
   -7.1212    2.4426    1.4089 H   0  0  0  0  0  0  0  0  0  0  0  0
   -7.2937    1.6783   -0.1804 H   0  0  0  0  0  0  0  0  0  0  0  0
   -5.7740    2.4828    0.2586 H   0  0  0  0  0  0  0  0  0  0  0  0
   -6.9149   -0.0117    1.6260 H   0  0  0  0  0  0  0  0  0  0  0  0
   -5.4024    0.7874    2.0614 H   0  0  0  0  0  0  0  0  0  0  0  0
   -4.5017    0.3288   -0.2279 H   0  0  0  0  0  0  0  0  0  0  0  0
   -6.0073   -0.4843   -0.6636 H   0  0  0  0  0  0  0  0  0  0  0  0
   -5.6397   -2.1158    1.2276 H   0  0  0  0  0  0  0  0  0  0  0  0
   -4.0983   -1.3543    1.5747 H   0  0  0  0  0  0  0  0  0  0  0  0
   -4.9130   -2.7884   -1.0057 H   0  0  0  0  0  0  0  0  0  0  0  0
   -3.8452   -3.4164    0.2377 H   0  0  0  0  0  0  0  0  0  0  0  0
   -3.2651   -1.0544   -1.6234 H   0  0  0  0  0  0  0  0  0  0  0  0
   -2.5983   -2.6733   -1.7275 H   0  0  0  0  0  0  0  0  0  0  0  0
   -2.1130   -0.6998    0.5657 H   0  0  0  0  0  0  0  0  0  0  0  0
   -1.5162   -2.3615    0.5316 H   0  0  0  0  0  0  0  0  0  0  0  0
   -0.8658   -0.2002   -1.5436 H   0  0  0  0  0  0  0  0  0  0  0  0
   -0.2547   -1.8560   -1.5738 H   0  0  0  0  0  0  0  0  0  0  0  0
    0.2440    0.1685    0.6736 H   0  0  0  0  0  0  0  0  0  0  0  0
    0.8541   -1.4875    0.6437 H   0  0  0  0  0  0  0  0  0  0  0  0
    1.5032    0.6706   -1.4349 H   0  0  0  0  0  0  0  0  0  0  0  0
    2.1137   -0.9853   -1.4646 H   0  0  0  0  0  0  0  0  0  0  0  0
    2.6124    1.0397    0.7826 H   0  0  0  0  0  0  0  0  0  0  0  0
    3.2228   -0.6162    0.7529 H   0  0  0  0  0  0  0  0  0  0  0  0
    4.4825   -0.1141   -1.3553 H   0  0  0  0  0  0  0  0  0  0  0  0
    3.8716    1.5417   -1.3259 H   0  0  0  0  0  0  0  0  0  0  0  0
    5.5868    0.2551    0.8633 H   0  0  0  0  0  0  0  0  0  0  0  0
    4.9811    1.9125    0.8903 H   0  0  0  0  0  0  0  0  0  0  0  0
    6.8593    0.7416   -1.2225 H   0  0  0  0  0  0  0  0  0  0  0  0
    6.2351    2.3984   -1.2370 H   0  0  0  0  0  0  0  0  0  0  0  0
    7.3572    2.8061    0.9930 H   0  0  0  0  0  0  0  0  0  0  0  0
    8.5005    2.3879   -0.3045 H   0  0  0  0  0  0  0  0  0  0  0  0
    8.8840    1.2417    1.6198 H   0  0  0  0  0  0  0  0  0  0  0  0
  1  2  1  0
  2  3  1  0
  3  4  1  0
  4  5  1  0
  5  6  1  0
  6  7  1  0
  7  8  1  0
  8  9  1  0
  9 10  1  0
 10 11  1  0
 11 12  1  0
 12 13  1  0
 13 14  1  0
 14 15  1  0
 15 16  1  0
  1 17  1  0
  1 18  1  0
  1 19  1  0
  2 20  1  0
  2 21  1  0
  3 22  1  0
  3 23  1  0
  4 24  1  0
  4 25  1  0
  5 26  1  0
  5 27  1  0
  6 28  1  0
  6 29  1  0
  7 30  1  0
  7 31  1  0
  8 32  1  0
  8 33  1  0
  9 34  1  0
  9 35  1  0
 10 36  1  0
 10 37  1  0
 11 38  1  0
 11 39  1  0
 12 40  1  0
 12 41  1  0
 13 42  1  0
 13 43  1  0
 14 44  1  0
 14 45  1  0
 15 46  1  0
 15 47  1  0
 16 48  1  0
M  END
>  <Energy>  (1) 
-2.561639536912317

>  <Real charge>  (1) 
0

>  <Mult>  (1) 
1

$$$$
mol_970 566
     RDKit          3D

 48 47  0  0  0  0  0  0  0  0999 V2000
   -8.0355    1.4344    0.6405 C   0  0  0  0  0  0  0  0  0  0  0  0
   -7.1810    0.1865    0.7954 C   0  0  0  0  0  0  0  0  0  0  0  0
   -5.7564    0.4172    0.2921 C   0  0  0  0  0  0  0  0  0  0  0  0
   -4.9001   -0.8404    0.4497 C   0  0  0  0  0  0  0  0  0  0  0  0
   -3.4737   -0.6097   -0.0547 C   0  0  0  0  0  0  0  0  0  0  0  0
   -2.6185   -1.8682    0.1081 C   0  0  0  0  0  0  0  0  0  0  0  0
   -1.2135   -1.7309   -0.4853 C   0  0  0  0  0  0  0  0  0  0  0  0
   -0.3436   -0.7029    0.2416 C   0  0  0  0  0  0  0  0  0  0  0  0
    1.0814   -0.6898   -0.3166 C   0  0  0  0  0  0  0  0  0  0  0  0
    1.9524    0.3397    0.4055 C   0  0  0  0  0  0  0  0  0  0  0  0
    3.3774    0.3528   -0.1527 C   0  0  0  0  0  0  0  0  0  0  0  0
    4.2471    1.3810    0.5741 C   0  0  0  0  0  0  0  0  0  0  0  0
    5.6524    1.5174   -0.0187 C   0  0  0  0  0  0  0  0  0  0  0  0
    6.5067    0.2617    0.1477 C   0  0  0  0  0  0  0  0  0  0  0  0
    7.9287    0.4833   -0.3536 C   0  0  0  0  0  0  0  0  0  0  0  0
    8.6951   -0.6993   -0.1686 O   0  0  0  0  0  0  0  0  0  0  0  0
   -9.0499    1.2471    1.0064 H   0  0  0  0  0  0  0  0  0  0  0  0
   -7.6173    2.2696    1.2113 H   0  0  0  0  0  0  0  0  0  0  0  0
   -8.1035    1.7355   -0.4098 H   0  0  0  0  0  0  0  0  0  0  0  0
   -7.1602   -0.1061    1.8516 H   0  0  0  0  0  0  0  0  0  0  0  0
   -7.6437   -0.6373    0.2394 H   0  0  0  0  0  0  0  0  0  0  0  0
   -5.7831    0.7136   -0.7636 H   0  0  0  0  0  0  0  0  0  0  0  0
   -5.2998    1.2449    0.8484 H   0  0  0  0  0  0  0  0  0  0  0  0
   -5.3575   -1.6677   -0.1065 H   0  0  0  0  0  0  0  0  0  0  0  0
   -4.8726   -1.1364    1.5055 H   0  0  0  0  0  0  0  0  0  0  0  0
   -3.5010   -0.3176   -1.1113 H   0  0  0  0  0  0  0  0  0  0  0  0
   -3.0281    0.2222    0.5020 H   0  0  0  0  0  0  0  0  0  0  0  0
   -2.5450   -2.1315    1.1703 H   0  0  0  0  0  0  0  0  0  0  0  0
   -3.1187   -2.7076   -0.3909 H   0  0  0  0  0  0  0  0  0  0  0  0
   -0.7250   -2.7120   -0.4353 H   0  0  0  0  0  0  0  0  0  0  0  0
   -1.2870   -1.4691   -1.5479 H   0  0  0  0  0  0  0  0  0  0  0  0
   -0.7775    0.2978    0.1371 H   0  0  0  0  0  0  0  0  0  0  0  0
   -0.3159   -0.9361    1.3128 H   0  0  0  0  0  0  0  0  0  0  0  0
    1.0535   -0.4604   -1.3888 H   0  0  0  0  0  0  0  0  0  0  0  0
    1.5270   -1.6864   -0.2103 H   0  0  0  0  0  0  0  0  0  0  0  0
    1.5067    1.3363    0.2992 H   0  0  0  0  0  0  0  0  0  0  0  0
    1.9802    0.1103    1.4777 H   0  0  0  0  0  0  0  0  0  0  0  0
    3.8113   -0.6478   -0.0481 H   0  0  0  0  0  0  0  0  0  0  0  0
    3.3496    0.5859   -1.2239 H   0  0  0  0  0  0  0  0  0  0  0  0
    4.3200    1.1199    1.6369 H   0  0  0  0  0  0  0  0  0  0  0  0
    3.7589    2.3622    0.5231 H   0  0  0  0  0  0  0  0  0  0  0  0
    6.1520    2.3581    0.4786 H   0  0  0  0  0  0  0  0  0  0  0  0
    5.5796    1.7780   -1.0816 H   0  0  0  0  0  0  0  0  0  0  0  0
    6.0662   -0.5815   -0.3965 H   0  0  0  0  0  0  0  0  0  0  0  0
    6.5375   -0.0411    1.2015 H   0  0  0  0  0  0  0  0  0  0  0  0
    8.4166    1.2906    0.2013 H   0  0  0  0  0  0  0  0  0  0  0  0
    7.9405    0.7418   -1.4174 H   0  0  0  0  0  0  0  0  0  0  0  0
    8.2671   -1.4084   -0.6779 H   0  0  0  0  0  0  0  0  0  0  0  0
  1  2  1  0
  2  3  1  0
  3  4  1  0
  4  5  1  0
  5  6  1  0
  6  7  1  0
  7  8  1  0
  8  9  1  0
  9 10  1  0
 10 11  1  0
 11 12  1  0
 12 13  1  0
 13 14  1  0
 14 15  1  0
 15 16  1  0
  1 17  1  0
  1 18  1  0
  1 19  1  0
  2 20  1  0
  2 21  1  0
  3 22  1  0
  3 23  1  0
  4 24  1  0
  4 25  1  0
  5 26  1  0
  5 27  1  0
  6 28  1  0
  6 29  1  0
  7 30  1  0
  7 31  1  0
  8 32  1  0
  8 33  1  0
  9 34  1  0
  9 35  1  0
 10 36  1  0
 10 37  1  0
 11 38  1  0
 11 39  1  0
 12 40  1  0
 12 41  1  0
 13 42  1  0
 13 43  1  0
 14 44  1  0
 14 45  1  0
 15 46  1  0
 15 47  1  0
 16 48  1  0
M  END
>  <Energy>  (2) 
-2.379834168950072

>  <Real charge>  (2) 
0

>  <Mult>  (2) 
1

$$$$
mol_970 470
     RDKit          3D

 48 47  0  0  0  0  0  0  0  0999 V2000
    7.7805   -1.5984    0.7379 C   0  0  0  0  0  0  0  0  0  0  0  0
    7.0460   -0.5421   -0.0721 C   0  0  0  0  0  0  0  0  0  0  0  0
    5.5317   -0.7383   -0.0060 C   0  0  0  0  0  0  0  0  0  0  0  0
    4.7965    0.3263   -0.8220 C   0  0  0  0  0  0  0  0  0  0  0  0
    3.2801    0.1296   -0.7562 C   0  0  0  0  0  0  0  0  0  0  0  0
    2.5474    1.1984   -1.5701 C   0  0  0  0  0  0  0  0  0  0  0  0
    1.0325    0.9834   -1.6338 C   0  0  0  0  0  0  0  0  0  0  0  0
    0.3387    1.1359   -0.2784 C   0  0  0  0  0  0  0  0  0  0  0  0
   -1.1823    1.0262   -0.4192 C   0  0  0  0  0  0  0  0  0  0  0  0
   -1.8757    1.1706    0.9374 C   0  0  0  0  0  0  0  0  0  0  0  0
   -3.4040    1.1835    0.8418 C   0  0  0  0  0  0  0  0  0  0  0  0
   -3.9950   -0.1444    0.3629 C   0  0  0  0  0  0  0  0  0  0  0  0
   -5.5252   -0.1139    0.3969 C   0  0  0  0  0  0  0  0  0  0  0  0
   -6.1180   -1.4411   -0.0849 C   0  0  0  0  0  0  0  0  0  0  0  0
   -7.6415   -1.4465   -0.0256 C   0  0  0  0  0  0  0  0  0  0  0  0
   -8.1864   -0.4591   -0.8895 O   0  0  0  0  0  0  0  0  0  0  0  0
    7.4902   -1.5563    1.7925 H   0  0  0  0  0  0  0  0  0  0  0  0
    7.5633   -2.6030    0.3612 H   0  0  0  0  0  0  0  0  0  0  0  0
    8.8617   -1.4391    0.6766 H   0  0  0  0  0  0  0  0  0  0  0  0
    7.3099    0.4513    0.3091 H   0  0  0  0  0  0  0  0  0  0  0  0
    7.3827   -0.5897   -1.1143 H   0  0  0  0  0  0  0  0  0  0  0  0
    5.2008   -0.6941    1.0388 H   0  0  0  0  0  0  0  0  0  0  0  0
    5.2734   -1.7348   -0.3847 H   0  0  0  0  0  0  0  0  0  0  0  0
    5.0540    1.3228   -0.4429 H   0  0  0  0  0  0  0  0  0  0  0  0
    5.1281    0.2817   -1.8665 H   0  0  0  0  0  0  0  0  0  0  0  0
    3.0223   -0.8653   -1.1389 H   0  0  0  0  0  0  0  0  0  0  0  0
    2.9598    0.1690    0.2908 H   0  0  0  0  0  0  0  0  0  0  0  0
    2.9355    1.1952   -2.5963 H   0  0  0  0  0  0  0  0  0  0  0  0
    2.7608    2.1912   -1.1555 H   0  0  0  0  0  0  0  0  0  0  0  0
    0.8192   -0.0087   -2.0500 H   0  0  0  0  0  0  0  0  0  0  0  0
    0.6133    1.7161   -2.3346 H   0  0  0  0  0  0  0  0  0  0  0  0
    0.5978    2.1072    0.1598 H   0  0  0  0  0  0  0  0  0  0  0  0
    0.6898    0.3620    0.4132 H   0  0  0  0  0  0  0  0  0  0  0  0
   -1.4304    0.0577   -0.8673 H   0  0  0  0  0  0  0  0  0  0  0  0
   -1.5449    1.8042   -1.1018 H   0  0  0  0  0  0  0  0  0  0  0  0
   -1.5554    2.1103    1.4045 H   0  0  0  0  0  0  0  0  0  0  0  0
   -1.5558    0.3615    1.6052 H   0  0  0  0  0  0  0  0  0  0  0  0
   -3.8058    1.4159    1.8360 H   0  0  0  0  0  0  0  0  0  0  0  0
   -3.7240    1.9936    0.1752 H   0  0  0  0  0  0  0  0  0  0  0  0
   -3.6646   -0.3557   -0.6602 H   0  0  0  0  0  0  0  0  0  0  0  0
   -3.6300   -0.9600    0.9986 H   0  0  0  0  0  0  0  0  0  0  0  0
   -5.8659    0.0889    1.4195 H   0  0  0  0  0  0  0  0  0  0  0  0
   -5.8867    0.7072   -0.2336 H   0  0  0  0  0  0  0  0  0  0  0  0
   -5.7942   -1.6199   -1.1174 H   0  0  0  0  0  0  0  0  0  0  0  0
   -5.7335   -2.2628    0.5303 H   0  0  0  0  0  0  0  0  0  0  0  0
   -8.0325   -2.4224   -0.3308 H   0  0  0  0  0  0  0  0  0  0  0  0
   -7.9937   -1.2439    0.9906 H   0  0  0  0  0  0  0  0  0  0  0  0
   -7.8705   -0.6505   -1.7890 H   0  0  0  0  0  0  0  0  0  0  0  0
  1  2  1  0
  2  3  1  0
  3  4  1  0
  4  5  1  0
  5  6  1  0
  6  7  1  0
  7  8  1  0
  8  9  1  0
  9 10  1  0
 10 11  1  0
 11 12  1  0
 12 13  1  0
 13 14  1  0
 14 15  1  0
 15 16  1  0
  1 17  1  0
  1 18  1  0
  1 19  1  0
  2 20  1  0
  2 21  1  0
  3 22  1  0
  3 23  1  0
  4 24  1  0
  4 25  1  0
  5 26  1  0
  5 27  1  0
  6 28  1  0
  6 29  1  0
  7 30  1  0
  7 31  1  0
  8 32  1  0
  8 33  1  0
  9 34  1  0
  9 35  1  0
 10 36  1  0
 10 37  1  0
 11 38  1  0
 11 39  1  0
 12 40  1  0
 12 41  1  0
 13 42  1  0
 13 43  1  0
 14 44  1  0
 14 45  1  0
 15 46  1  0
 15 47  1  0
 16 48  1  0
M  END
>  <Energy>  (3) 
-2.122443493458741

>  <Real charge>  (3) 
0

>  <Mult>  (3) 
1

$$$$
mol_970 913
     RDKit          3D

 48 47  0  0  0  0  0  0  0  0999 V2000
   -5.5465    2.6032   -0.9073 C   0  0  0  0  0  0  0  0  0  0  0  0
   -5.3801    1.0912   -0.9112 C   0  0  0  0  0  0  0  0  0  0  0  0
   -5.3024    0.5356    0.5109 C   0  0  0  0  0  0  0  0  0  0  0  0
   -5.2510   -0.9943    0.5663 C   0  0  0  0  0  0  0  0  0  0  0  0
   -4.0691   -1.6498   -0.1547 C   0  0  0  0  0  0  0  0  0  0  0  0
   -2.7066   -1.2128    0.3868 C   0  0  0  0  0  0  0  0  0  0  0  0
   -1.5693   -1.9834   -0.2878 C   0  0  0  0  0  0  0  0  0  0  0  0
   -0.2047   -1.5443    0.2485 C   0  0  0  0  0  0  0  0  0  0  0  0
    0.9305   -2.3134   -0.4308 C   0  0  0  0  0  0  0  0  0  0  0  0
    2.3125   -1.9962    0.1478 C   0  0  0  0  0  0  0  0  0  0  0  0
    2.7600   -0.5541   -0.1010 C   0  0  0  0  0  0  0  0  0  0  0  0
    4.1902   -0.3251    0.3938 C   0  0  0  0  0  0  0  0  0  0  0  0
    4.6390    1.1173    0.1504 C   0  0  0  0  0  0  0  0  0  0  0  0
    6.0698    1.3450    0.6468 C   0  0  0  0  0  0  0  0  0  0  0  0
    6.5273    2.7846    0.4460 C   0  0  0  0  0  0  0  0  0  0  0  0
    6.5753    3.0891   -0.9404 O   0  0  0  0  0  0  0  0  0  0  0  0
   -5.5964    2.9815   -1.9332 H   0  0  0  0  0  0  0  0  0  0  0  0
   -6.4673    2.8957   -0.3926 H   0  0  0  0  0  0  0  0  0  0  0  0
   -4.7030    3.0891   -0.4065 H   0  0  0  0  0  0  0  0  0  0  0  0
   -4.4705    0.8416   -1.4679 H   0  0  0  0  0  0  0  0  0  0  0  0
   -6.2245    0.6380   -1.4432 H   0  0  0  0  0  0  0  0  0  0  0  0
   -6.1862    0.8644    1.0724 H   0  0  0  0  0  0  0  0  0  0  0  0
   -4.4356    0.9604    1.0299 H   0  0  0  0  0  0  0  0  0  0  0  0
   -6.1799   -1.3951    0.1417 H   0  0  0  0  0  0  0  0  0  0  0  0
   -5.2375   -1.3016    1.6195 H   0  0  0  0  0  0  0  0  0  0  0  0
   -4.1249   -1.4464   -1.2302 H   0  0  0  0  0  0  0  0  0  0  0  0
   -4.1666   -2.7371   -0.0433 H   0  0  0  0  0  0  0  0  0  0  0  0
   -2.5614   -0.1401    0.2165 H   0  0  0  0  0  0  0  0  0  0  0  0
   -2.6707   -1.3791    1.4702 H   0  0  0  0  0  0  0  0  0  0  0  0
   -1.6077   -1.8202   -1.3718 H   0  0  0  0  0  0  0  0  0  0  0  0
   -1.7024   -3.0586   -0.1172 H   0  0  0  0  0  0  0  0  0  0  0  0
   -0.0837   -0.4686    0.0795 H   0  0  0  0  0  0  0  0  0  0  0  0
   -0.1655   -1.7108    1.3317 H   0  0  0  0  0  0  0  0  0  0  0  0
    0.7520   -3.3898   -0.3163 H   0  0  0  0  0  0  0  0  0  0  0  0
    0.9263   -2.1059   -1.5078 H   0  0  0  0  0  0  0  0  0  0  0  0
    3.0385   -2.6800   -0.3093 H   0  0  0  0  0  0  0  0  0  0  0  0
    2.3172   -2.2052    1.2245 H   0  0  0  0  0  0  0  0  0  0  0  0
    2.0883    0.1421    0.4134 H   0  0  0  0  0  0  0  0  0  0  0  0
    2.7025   -0.3308   -1.1731 H   0  0  0  0  0  0  0  0  0  0  0  0
    4.8720   -1.0130   -0.1208 H   0  0  0  0  0  0  0  0  0  0  0  0
    4.2485   -0.5525    1.4652 H   0  0  0  0  0  0  0  0  0  0  0  0
    3.9586    1.8053    0.6668 H   0  0  0  0  0  0  0  0  0  0  0  0
    4.5751    1.3425   -0.9209 H   0  0  0  0  0  0  0  0  0  0  0  0
    6.7445    0.6718    0.1040 H   0  0  0  0  0  0  0  0  0  0  0  0
    6.1349    1.0941    1.7118 H   0  0  0  0  0  0  0  0  0  0  0  0
    5.8452    3.4851    0.9383 H   0  0  0  0  0  0  0  0  0  0  0  0
    7.5305    2.9198    0.8625 H   0  0  0  0  0  0  0  0  0  0  0  0
    6.8748    4.0107   -1.0200 H   0  0  0  0  0  0  0  0  0  0  0  0
  1  2  1  0
  2  3  1  0
  3  4  1  0
  4  5  1  0
  5  6  1  0
  6  7  1  0
  7  8  1  0
  8  9  1  0
  9 10  1  0
 10 11  1  0
 11 12  1  0
 12 13  1  0
 13 14  1  0
 14 15  1  0
 15 16  1  0
  1 17  1  0
  1 18  1  0
  1 19  1  0
  2 20  1  0
  2 21  1  0
  3 22  1  0
  3 23  1  0
  4 24  1  0
  4 25  1  0
  5 26  1  0
  5 27  1  0
  6 28  1  0
  6 29  1  0
  7 30  1  0
  7 31  1  0
  8 32  1  0
  8 33  1  0
  9 34  1  0
  9 35  1  0
 10 36  1  0
 10 37  1  0
 11 38  1  0
 11 39  1  0
 12 40  1  0
 12 41  1  0
 13 42  1  0
 13 43  1  0
 14 44  1  0
 14 45  1  0
 15 46  1  0
 15 47  1  0
 16 48  1  0
M  END
>  <Energy>  (4) 
-1.6805180324648619

>  <Real charge>  (4) 
0

>  <Mult>  (4) 
1

$$$$
