mol_248 20
     RDKit          3D

 12 12  0  0  0  0  0  0  0  0999 V2000
    3.1324   -0.0499   -0.0079 Cl  0  0  0  0  0  0  0  0  0  0  0  0
    1.4131   -0.0002   -0.0034 C   0  0  0  0  0  0  0  0  0  0  0  0
    0.7583    1.2302    0.0045 C   0  0  0  0  0  0  0  0  0  0  0  0
   -0.6377    1.2725    0.0081 C   0  0  0  0  0  0  0  0  0  0  0  0
   -1.3757    0.0843    0.0038 C   0  0  0  0  0  0  0  0  0  0  0  0
   -3.0983    0.2089    0.0086 Cl  0  0  0  0  0  0  0  0  0  0  0  0
   -0.7106   -1.1487   -0.0042 C   0  0  0  0  0  0  0  0  0  0  0  0
   -1.5569   -2.6553   -0.0100 Cl  0  0  0  0  0  0  0  0  0  0  0  0
    0.6869   -1.1897   -0.0078 C   0  0  0  0  0  0  0  0  0  0  0  0
    1.3265    2.1576    0.0079 H   0  0  0  0  0  0  0  0  0  0  0  0
   -1.1444    2.2350    0.0144 H   0  0  0  0  0  0  0  0  0  0  0  0
    1.2064   -2.1446   -0.0140 H   0  0  0  0  0  0  0  0  0  0  0  0
  1  2  1  0
  2  3  2  0
  3  4  1  0
  4  5  2  0
  5  6  1  0
  5  7  1  0
  7  8  1  0
  7  9  2  0
  9  2  1  0
  3 10  1  0
  4 11  1  0
  9 12  1  0
M  END
>  <Energy>  (1) 
15.894480831069227

>  <Real charge>  (1) 
0

>  <Mult>  (1) 
1

$$$$
