mol_1016 14
     RDKit          3D

 29 32  0  0  0  0  0  0  0  0999 V2000
   -0.8642    1.4240    0.2278 C   0  0  0  0  0  0  0  0  0  0  0  0
   -2.1343    0.6159    0.0678 C   0  0  0  0  0  0  0  0  0  0  0  0
   -3.4449    1.0607    0.1208 C   0  0  0  0  0  0  0  0  0  0  0  0
   -4.4627    0.1217   -0.0572 C   0  0  0  0  0  0  0  0  0  0  0  0
   -4.1602   -1.2319   -0.2828 C   0  0  0  0  0  0  0  0  0  0  0  0
   -2.8333   -1.6715   -0.3347 C   0  0  0  0  0  0  0  0  0  0  0  0
   -1.8231   -0.7408   -0.1583 C   0  0  0  0  0  0  0  0  0  0  0  0
   -0.3832   -0.8938   -0.1592 C   0  0  0  0  0  0  0  0  0  0  0  0
    0.3969   -2.0210   -0.3379 C   0  0  0  0  0  0  0  0  0  0  0  0
    1.7881   -1.8829   -0.2900 C   0  0  0  0  0  0  0  0  0  0  0  0
    2.4019   -0.6295   -0.0654 C   0  0  0  0  0  0  0  0  0  0  0  0
    3.7998   -0.5071   -0.0201 C   0  0  0  0  0  0  0  0  0  0  0  0
    4.4054    0.7312    0.2018 C   0  0  0  0  0  0  0  0  0  0  0  0
    3.6224    1.8671    0.3819 C   0  0  0  0  0  0  0  0  0  0  0  0
    2.2312    1.7684    0.3407 C   0  0  0  0  0  0  0  0  0  0  0  0
    1.6047    0.5272    0.1180 C   0  0  0  0  0  0  0  0  0  0  0  0
    0.2155    0.3674    0.0664 C   0  0  0  0  0  0  0  0  0  0  0  0
   -0.8197    1.8742    1.2239 H   0  0  0  0  0  0  0  0  0  0  0  0
   -0.7885    2.1787   -0.5607 H   0  0  0  0  0  0  0  0  0  0  0  0
   -3.6783    2.1056    0.2950 H   0  0  0  0  0  0  0  0  0  0  0  0
   -5.5021    0.4397   -0.0211 H   0  0  0  0  0  0  0  0  0  0  0  0
   -4.9689   -1.9461   -0.4188 H   0  0  0  0  0  0  0  0  0  0  0  0
   -2.6110   -2.7185   -0.5094 H   0  0  0  0  0  0  0  0  0  0  0  0
   -0.0494   -2.9942   -0.5117 H   0  0  0  0  0  0  0  0  0  0  0  0
    2.4028   -2.7701   -0.4306 H   0  0  0  0  0  0  0  0  0  0  0  0
    4.4319   -1.3816   -0.1583 H   0  0  0  0  0  0  0  0  0  0  0  0
    5.4892    0.8067    0.2336 H   0  0  0  0  0  0  0  0  0  0  0  0
    4.0937    2.8311    0.5546 H   0  0  0  0  0  0  0  0  0  0  0  0
    1.6401    2.6692    0.4840 H   0  0  0  0  0  0  0  0  0  0  0  0
  1  2  1  0
  2  3  2  0
  3  4  1  0
  4  5  2  0
  5  6  1  0
  6  7  2  0
  7  8  1  0
  8  9  2  0
  9 10  1  0
 10 11  2  0
 11 12  1  0
 12 13  2  0
 13 14  1  0
 14 15  2  0
 15 16  1  0
 16 17  2  0
 17  1  1  0
  7  2  1  0
 17  8  1  0
 16 11  1  0
  1 18  1  0
  1 19  1  0
  3 20  1  0
  4 21  1  0
  5 22  1  0
  6 23  1  0
  9 24  1  0
 10 25  1  0
 12 26  1  0
 13 27  1  0
 14 28  1  0
 15 29  1  0
M  END
>  <Energy>  (1) 
64.55668623697453

>  <Real charge>  (1) 
0

>  <Mult>  (1) 
1

$$$$
