mol_181 159
     RDKit          3D

 20 19  0  0  0  0  0  0  0  0999 V2000
   -2.5566   -0.2459    0.2029 C   0  0  0  0  0  0  0  0  0  0  0  0
   -1.3574    0.2342   -0.6029 C   0  0  0  0  0  0  0  0  0  0  0  0
   -0.0091    0.0789    0.1314 C   0  0  0  0  0  0  0  0  0  0  0  0
    0.3164   -1.3925    0.4059 C   0  0  0  0  0  0  0  0  0  0  0  0
    1.0983    0.7593   -0.7003 C   0  0  0  0  0  0  0  0  0  0  0  0
    2.4462    0.8238    0.0046 C   0  0  0  0  0  0  0  0  0  0  0  0
   -2.5861    0.2316    1.1872 H   0  0  0  0  0  0  0  0  0  0  0  0
   -2.5415   -1.3306    0.3418 H   0  0  0  0  0  0  0  0  0  0  0  0
   -3.4842    0.0041   -0.3223 H   0  0  0  0  0  0  0  0  0  0  0  0
   -1.5158    1.2935   -0.8410 H   0  0  0  0  0  0  0  0  0  0  0  0
   -1.3290   -0.3024   -1.5592 H   0  0  0  0  0  0  0  0  0  0  0  0
   -0.0820    0.5982    1.0959 H   0  0  0  0  0  0  0  0  0  0  0  0
    1.2575   -1.4981    0.9537 H   0  0  0  0  0  0  0  0  0  0  0  0
    0.4006   -1.9593   -0.5273 H   0  0  0  0  0  0  0  0  0  0  0  0
   -0.4551   -1.8643    1.0217 H   0  0  0  0  0  0  0  0  0  0  0  0
    1.2192    0.2424   -1.6602 H   0  0  0  0  0  0  0  0  0  0  0  0
    0.7918    1.7869   -0.9325 H   0  0  0  0  0  0  0  0  0  0  0  0
    2.8860   -0.1700    0.1266 H   0  0  0  0  0  0  0  0  0  0  0  0
    2.3526    1.2877    0.9914 H   0  0  0  0  0  0  0  0  0  0  0  0
    3.1482    1.4224   -0.5853 H   0  0  0  0  0  0  0  0  0  0  0  0
  1  2  1  0
  2  3  1  0
  3  4  1  0
  3  5  1  0
  5  6  1  0
  1  7  1  0
  1  8  1  0
  1  9  1  0
  2 10  1  0
  2 11  1  0
  3 12  1  0
  4 13  1  0
  4 14  1  0
  4 15  1  0
  5 16  1  0
  5 17  1  0
  6 18  1  0
  6 19  1  0
  6 20  1  0
M  END
>  <Energy>  (1) 
1.422940791977979

>  <Real charge>  (1) 
0

>  <Mult>  (1) 
1

$$$$
mol_181 75
     RDKit          3D

 20 19  0  0  0  0  0  0  0  0999 V2000
   -2.2627   -0.7165   -0.2229 C   0  0  0  0  0  0  0  0  0  0  0  0
   -0.7520   -0.8655   -0.0988 C   0  0  0  0  0  0  0  0  0  0  0  0
   -0.0032    0.4740    0.0495 C   0  0  0  0  0  0  0  0  0  0  0  0
   -0.4740    1.2539    1.2827 C   0  0  0  0  0  0  0  0  0  0  0  0
    1.5234    0.2683    0.1399 C   0  0  0  0  0  0  0  0  0  0  0  0
    2.1407   -0.3325   -1.1153 C   0  0  0  0  0  0  0  0  0  0  0  0
   -2.7097   -0.3552    0.7078 H   0  0  0  0  0  0  0  0  0  0  0  0
   -2.7170   -1.6868   -0.4489 H   0  0  0  0  0  0  0  0  0  0  0  0
   -2.5249   -0.0241   -1.0289 H   0  0  0  0  0  0  0  0  0  0  0  0
   -0.4004   -1.3850   -0.9969 H   0  0  0  0  0  0  0  0  0  0  0  0
   -0.5261   -1.5179    0.7534 H   0  0  0  0  0  0  0  0  0  0  0  0
   -0.2139    1.0899   -0.8347 H   0  0  0  0  0  0  0  0  0  0  0  0
   -1.5244    1.5471    1.1930 H   0  0  0  0  0  0  0  0  0  0  0  0
    0.1052    2.1756    1.4057 H   0  0  0  0  0  0  0  0  0  0  0  0
   -0.3601    0.6588    2.1951 H   0  0  0  0  0  0  0  0  0  0  0  0
    1.7670   -0.3674    1.0001 H   0  0  0  0  0  0  0  0  0  0  0  0
    2.0052    1.2377    0.3192 H   0  0  0  0  0  0  0  0  0  0  0  0
    3.2325   -0.3316   -1.0321 H   0  0  0  0  0  0  0  0  0  0  0  0
    1.8688    0.2463   -2.0036 H   0  0  0  0  0  0  0  0  0  0  0  0
    1.8254   -1.3690   -1.2642 H   0  0  0  0  0  0  0  0  0  0  0  0
  1  2  1  0
  2  3  1  0
  3  4  1  0
  3  5  1  0
  5  6  1  0
  1  7  1  0
  1  8  1  0
  1  9  1  0
  2 10  1  0
  2 11  1  0
  3 12  1  0
  4 13  1  0
  4 14  1  0
  4 15  1  0
  5 16  1  0
  5 17  1  0
  6 18  1  0
  6 19  1  0
  6 20  1  0
M  END
>  <Energy>  (2) 
1.4523463216689285

>  <Real charge>  (2) 
0

>  <Mult>  (2) 
1

$$$$
mol_181 39
     RDKit          3D

 20 19  0  0  0  0  0  0  0  0999 V2000
    1.8748    0.7165   -0.1774 C   0  0  0  0  0  0  0  0  0  0  0  0
    0.8602    0.3962    0.9117 C   0  0  0  0  0  0  0  0  0  0  0  0
   -0.2761   -0.5581    0.4936 C   0  0  0  0  0  0  0  0  0  0  0  0
    0.2587   -1.9628    0.1948 C   0  0  0  0  0  0  0  0  0  0  0  0
   -1.1211   -0.0610   -0.6944 C   0  0  0  0  0  0  0  0  0  0  0  0
   -1.7818    1.2884   -0.4521 C   0  0  0  0  0  0  0  0  0  0  0  0
    2.3743   -0.1859   -0.5409 H   0  0  0  0  0  0  0  0  0  0  0  0
    2.6468    1.3840    0.2196 H   0  0  0  0  0  0  0  0  0  0  0  0
    1.4080    1.2226   -1.0271 H   0  0  0  0  0  0  0  0  0  0  0  0
    0.4317    1.3359    1.2796 H   0  0  0  0  0  0  0  0  0  0  0  0
    1.3942   -0.0412    1.7649 H   0  0  0  0  0  0  0  0  0  0  0  0
   -0.9449   -0.6508    1.3603 H   0  0  0  0  0  0  0  0  0  0  0  0
   -0.5686   -2.6644    0.0418 H   0  0  0  0  0  0  0  0  0  0  0  0
    0.8773   -1.9784   -0.7081 H   0  0  0  0  0  0  0  0  0  0  0  0
    0.8605   -2.3378    1.0292 H   0  0  0  0  0  0  0  0  0  0  0  0
   -0.5131   -0.0078   -1.6049 H   0  0  0  0  0  0  0  0  0  0  0  0
   -1.9121   -0.7946   -0.8963 H   0  0  0  0  0  0  0  0  0  0  0  0
   -2.3757    1.2759    0.4672 H   0  0  0  0  0  0  0  0  0  0  0  0
   -2.4508    1.5326   -1.2837 H   0  0  0  0  0  0  0  0  0  0  0  0
   -1.0425    2.0910   -0.3778 H   0  0  0  0  0  0  0  0  0  0  0  0
  1  2  1  0
  2  3  1  0
  3  4  1  0
  3  5  1  0
  5  6  1  0
  1  7  1  0
  1  8  1  0
  1  9  1  0
  2 10  1  0
  2 11  1  0
  3 12  1  0
  4 13  1  0
  4 14  1  0
  4 15  1  0
  5 16  1  0
  5 17  1  0
  6 18  1  0
  6 19  1  0
  6 20  1  0
M  END
>  <Energy>  (3) 
1.4834788723488375

>  <Real charge>  (3) 
0

>  <Mult>  (3) 
1

$$$$
mol_181 230
     RDKit          3D

 20 19  0  0  0  0  0  0  0  0999 V2000
    2.3572   -0.0274    0.6953 C   0  0  0  0  0  0  0  0  0  0  0  0
    0.9008   -0.4728    0.6836 C   0  0  0  0  0  0  0  0  0  0  0  0
    0.1528   -0.0797   -0.6045 C   0  0  0  0  0  0  0  0  0  0  0  0
    0.0229    1.4387   -0.7532 C   0  0  0  0  0  0  0  0  0  0  0  0
   -1.2215   -0.7749   -0.6981 C   0  0  0  0  0  0  0  0  0  0  0  0
   -2.2157   -0.4053    0.3945 C   0  0  0  0  0  0  0  0  0  0  0  0
    2.4439    1.0628    0.7122 H   0  0  0  0  0  0  0  0  0  0  0  0
    2.8913   -0.4053   -0.1821 H   0  0  0  0  0  0  0  0  0  0  0  0
    2.8594   -0.4126    1.5886 H   0  0  0  0  0  0  0  0  0  0  0  0
    0.8771   -1.5638    0.7954 H   0  0  0  0  0  0  0  0  0  0  0  0
    0.3994   -0.0513    1.5624 H   0  0  0  0  0  0  0  0  0  0  0  0
    0.7412   -0.4412   -1.4589 H   0  0  0  0  0  0  0  0  0  0  0  0
   -0.5945    1.6938   -1.6211 H   0  0  0  0  0  0  0  0  0  0  0  0
    1.0020    1.9036   -0.9056 H   0  0  0  0  0  0  0  0  0  0  0  0
   -0.4288    1.8949    0.1334 H   0  0  0  0  0  0  0  0  0  0  0  0
   -1.0731   -1.8619   -0.6817 H   0  0  0  0  0  0  0  0  0  0  0  0
   -1.6719   -0.5427   -1.6713 H   0  0  0  0  0  0  0  0  0  0  0  0
   -2.4413    0.6649    0.3886 H   0  0  0  0  0  0  0  0  0  0  0  0
   -1.8442   -0.6780    1.3862 H   0  0  0  0  0  0  0  0  0  0  0  0
   -3.1570   -0.9420    0.2363 H   0  0  0  0  0  0  0  0  0  0  0  0
  1  2  1  0
  2  3  1  0
  3  4  1  0
  3  5  1  0
  5  6  1  0
  1  7  1  0
  1  8  1  0
  1  9  1  0
  2 10  1  0
  2 11  1  0
  3 12  1  0
  4 13  1  0
  4 14  1  0
  4 15  1  0
  5 16  1  0
  5 17  1  0
  6 18  1  0
  6 19  1  0
  6 20  1  0
M  END
>  <Energy>  (4) 
1.6325109921885828

>  <Real charge>  (4) 
0

>  <Mult>  (4) 
1

$$$$
