mol_111 79
     RDKit          3D

 14 14  0  0  0  0  0  0  0  0999 V2000
   -2.4368    0.2038    1.3362 O   0  0  0  0  0  0  0  0  0  0  0  0
   -1.2198    0.1098    0.6593 C   0  0  0  0  0  0  0  0  0  0  0  0
   -0.2051   -0.7744    1.0829 C   0  0  0  0  0  0  0  0  0  0  0  0
   -0.4235   -2.0359    2.7717 I   0  0  0  0  0  0  0  0  0  0  0  0
    1.0017   -0.8384    0.3759 C   0  0  0  0  0  0  0  0  0  0  0  0
    1.2074   -0.0309   -0.7480 C   0  0  0  0  0  0  0  0  0  0  0  0
    2.4509   -0.1022   -1.4699 C   0  0  0  0  0  0  0  0  0  0  0  0
    3.4505   -0.1596   -2.0501 N   0  0  0  0  0  0  0  0  0  0  0  0
    0.2023    0.8459   -1.1688 C   0  0  0  0  0  0  0  0  0  0  0  0
   -1.0067    0.9172   -0.4694 C   0  0  0  0  0  0  0  0  0  0  0  0
   -2.4993    2.2569   -1.1403 I   0  0  0  0  0  0  0  0  0  0  0  0
   -2.6564   -0.3475    2.1549 H   0  0  0  0  0  0  0  0  0  0  0  0
    1.7788   -1.5185    0.7039 H   0  0  0  0  0  0  0  0  0  0  0  0
    0.3561    1.4736   -2.0384 H   0  0  0  0  0  0  0  0  0  0  0  0
  1  2  1  0
  2  3  2  0
  3  4  1  0
  3  5  1  0
  5  6  2  0
  6  7  1  0
  7  8  3  0
  6  9  1  0
  9 10  2  0
 10 11  1  0
 10  2  1  0
  1 12  1  0
  5 13  1  0
  9 14  1  0
M  END
>  <Energy>  (1) 
13.210124577402826

>  <Real charge>  (1) 
0

>  <Mult>  (1) 
1

$$$$
