mol_459 458
     RDKit          3D

 47 49  0  0  0  0  0  0  0  0999 V2000
   -3.4683    1.3257    0.4327 C   0  0  0  0  0  0  0  0  0  0  0  0
   -2.4512    2.3169   -0.0827 C   0  0  0  0  0  0  0  0  0  0  0  0
   -2.9087    3.7515    0.0352 C   0  0  0  0  0  0  0  0  0  0  0  0
   -0.9852    1.9461    0.0792 C   0  0  0  0  0  0  0  0  0  0  0  0
    0.0201    2.9601    0.4331 C   0  0  0  0  0  0  0  0  0  0  0  0
    1.2685    3.0795   -0.0451 C   0  0  0  0  0  0  0  0  0  0  0  0
    2.3082    4.3291    0.5410 Cl  0  0  0  0  0  0  0  0  0  0  0  0
    1.9028    2.0143   -1.2447 Cl  0  0  0  0  0  0  0  0  0  0  0  0
   -1.6137    1.9630   -1.3030 C   0  0  0  0  0  0  0  0  0  0  0  0
   -1.8320    0.7019   -2.0498 C   0  0  0  0  0  0  0  0  0  0  0  0
   -2.8007    0.5295   -2.7713 O   0  0  0  0  0  0  0  0  0  0  0  0
   -0.8376   -0.1843   -1.8283 O   0  0  0  0  0  0  0  0  0  0  0  0
   -0.9659   -1.4461   -2.5112 C   0  0  0  0  0  0  0  0  0  0  0  0
   -0.4152   -1.3610   -3.8809 C   0  0  0  0  0  0  0  0  0  0  0  0
    0.0119   -1.2910   -4.9597 N   0  0  0  0  0  0  0  0  0  0  0  0
   -0.2293   -2.4836   -1.6742 C   0  0  0  0  0  0  0  0  0  0  0  0
   -0.6943   -3.8078   -1.6115 C   0  0  0  0  0  0  0  0  0  0  0  0
   -0.0224   -4.7619   -0.8425 C   0  0  0  0  0  0  0  0  0  0  0  0
    1.1147   -4.4047   -0.1183 C   0  0  0  0  0  0  0  0  0  0  0  0
    1.5803   -3.0928   -0.1600 C   0  0  0  0  0  0  0  0  0  0  0  0
    2.7146   -2.8044    0.5666 O   0  0  0  0  0  0  0  0  0  0  0  0
    2.7314   -1.6050    1.2432 C   0  0  0  0  0  0  0  0  0  0  0  0
    1.7288   -1.2509    2.1503 C   0  0  0  0  0  0  0  0  0  0  0  0
    1.8060   -0.0325    2.8262 C   0  0  0  0  0  0  0  0  0  0  0  0
    2.8894    0.8193    2.6068 C   0  0  0  0  0  0  0  0  0  0  0  0
    3.9001    0.4523    1.7169 C   0  0  0  0  0  0  0  0  0  0  0  0
    3.8259   -0.7654    1.0398 C   0  0  0  0  0  0  0  0  0  0  0  0
    0.9344   -2.1463   -0.9598 C   0  0  0  0  0  0  0  0  0  0  0  0
   -3.0999    0.2948    0.4014 H   0  0  0  0  0  0  0  0  0  0  0  0
   -3.7231    1.5529    1.4733 H   0  0  0  0  0  0  0  0  0  0  0  0
   -4.3847    1.3756   -0.1644 H   0  0  0  0  0  0  0  0  0  0  0  0
   -3.8782    3.8809   -0.4577 H   0  0  0  0  0  0  0  0  0  0  0  0
   -3.0203    4.0287    1.0886 H   0  0  0  0  0  0  0  0  0  0  0  0
   -2.2095    4.4550   -0.4288 H   0  0  0  0  0  0  0  0  0  0  0  0
   -0.7723    0.9760    0.5245 H   0  0  0  0  0  0  0  0  0  0  0  0
   -0.2872    3.6663    1.2027 H   0  0  0  0  0  0  0  0  0  0  0  0
   -1.3525    2.7836   -1.9651 H   0  0  0  0  0  0  0  0  0  0  0  0
   -2.0239   -1.7375   -2.5451 H   0  0  0  0  0  0  0  0  0  0  0  0
   -1.5817   -4.1118   -2.1645 H   0  0  0  0  0  0  0  0  0  0  0  0
   -0.3856   -5.7863   -0.8073 H   0  0  0  0  0  0  0  0  0  0  0  0
    1.6353   -5.1473    0.4806 H   0  0  0  0  0  0  0  0  0  0  0  0
    0.8938   -1.9201    2.3367 H   0  0  0  0  0  0  0  0  0  0  0  0
    1.0277    0.2483    3.5307 H   0  0  0  0  0  0  0  0  0  0  0  0
    2.9523    1.7672    3.1355 H   0  0  0  0  0  0  0  0  0  0  0  0
    4.7464    1.1142    1.5516 H   0  0  0  0  0  0  0  0  0  0  0  0
    4.6132   -1.0542    0.3492 H   0  0  0  0  0  0  0  0  0  0  0  0
    1.3378   -1.1376   -1.0217 H   0  0  0  0  0  0  0  0  0  0  0  0
  1  2  1  0
  2  3  1  0
  2  4  1  0
  4  5  1  0
  5  6  2  3
  6  7  1  0
  6  8  1  0
  4  9  1  0
  9 10  1  0
 10 11  2  0
 10 12  1  0
 12 13  1  0
 13 14  1  0
 14 15  3  0
 13 16  1  0
 16 17  2  0
 17 18  1  0
 18 19  2  0
 19 20  1  0
 20 21  1  0
 21 22  1  0
 22 23  2  0
 23 24  1  0
 24 25  2  0
 25 26  1  0
 26 27  2  0
 20 28  2  0
  9  2  1  0
 28 16  1  0
 27 22  1  0
  1 29  1  0
  1 30  1  0
  1 31  1  0
  3 32  1  0
  3 33  1  0
  3 34  1  0
  4 35  1  0
  5 36  1  0
  9 37  1  0
 13 38  1  0
 17 39  1  0
 18 40  1  0
 19 41  1  0
 23 42  1  0
 24 43  1  0
 25 44  1  0
 26 45  1  0
 27 46  1  0
 28 47  1  0
M  END
>  <Energy>  (1) 
67.42610569663691

>  <Real charge>  (1) 
0

>  <Mult>  (1) 
1

$$$$
mol_459 166
     RDKit          3D

 47 49  0  0  0  0  0  0  0  0999 V2000
   -3.3003    0.3053    2.1535 C   0  0  0  0  0  0  0  0  0  0  0  0
   -3.2880    1.0078    0.8155 C   0  0  0  0  0  0  0  0  0  0  0  0
   -4.4464    1.9596    0.6343 C   0  0  0  0  0  0  0  0  0  0  0  0
   -1.9276    1.3085    0.2055 C   0  0  0  0  0  0  0  0  0  0  0  0
   -1.6774    2.5622   -0.5222 C   0  0  0  0  0  0  0  0  0  0  0  0
   -1.0240    2.7194   -1.6840 C   0  0  0  0  0  0  0  0  0  0  0  0
   -0.3742    1.3848   -2.5656 Cl  0  0  0  0  0  0  0  0  0  0  0  0
   -0.8023    4.2975   -2.3517 Cl  0  0  0  0  0  0  0  0  0  0  0  0
   -2.8203    0.2511   -0.4183 C   0  0  0  0  0  0  0  0  0  0  0  0
   -2.4641   -1.1857   -0.3571 C   0  0  0  0  0  0  0  0  0  0  0  0
   -3.3072   -2.0658   -0.4204 O   0  0  0  0  0  0  0  0  0  0  0  0
   -1.1288   -1.3736   -0.2534 O   0  0  0  0  0  0  0  0  0  0  0  0
   -0.7134   -2.7502   -0.1645 C   0  0  0  0  0  0  0  0  0  0  0  0
   -0.9447   -3.2906    1.1947 C   0  0  0  0  0  0  0  0  0  0  0  0
   -1.1275   -3.6999    2.2673 N   0  0  0  0  0  0  0  0  0  0  0  0
    0.7648   -2.7859   -0.5260 C   0  0  0  0  0  0  0  0  0  0  0  0
    1.2695   -3.7940   -1.3637 C   0  0  0  0  0  0  0  0  0  0  0  0
    2.6295   -3.8404   -1.6795 C   0  0  0  0  0  0  0  0  0  0  0  0
    3.5012   -2.8801   -1.1671 C   0  0  0  0  0  0  0  0  0  0  0  0
    3.0136   -1.8648   -0.3469 C   0  0  0  0  0  0  0  0  0  0  0  0
    3.9351   -0.9710    0.1528 O   0  0  0  0  0  0  0  0  0  0  0  0
    3.5556    0.3503    0.2068 C   0  0  0  0  0  0  0  0  0  0  0  0
    3.1659    1.0514   -0.9364 C   0  0  0  0  0  0  0  0  0  0  0  0
    2.8260    2.4010   -0.8363 C   0  0  0  0  0  0  0  0  0  0  0  0
    2.8827    3.0460    0.3998 C   0  0  0  0  0  0  0  0  0  0  0  0
    3.2926    2.3468    1.5361 C   0  0  0  0  0  0  0  0  0  0  0  0
    3.6395    0.9990    1.4385 C   0  0  0  0  0  0  0  0  0  0  0  0
    1.6581   -1.8291   -0.0085 C   0  0  0  0  0  0  0  0  0  0  0  0
   -2.4157   -0.3222    2.3044 H   0  0  0  0  0  0  0  0  0  0  0  0
   -3.3249    1.0397    2.9655 H   0  0  0  0  0  0  0  0  0  0  0  0
   -4.1862   -0.3325    2.2396 H   0  0  0  0  0  0  0  0  0  0  0  0
   -4.3760    2.7837    1.3518 H   0  0  0  0  0  0  0  0  0  0  0  0
   -4.4842    2.3886   -0.3725 H   0  0  0  0  0  0  0  0  0  0  0  0
   -5.3944    1.4379    0.8035 H   0  0  0  0  0  0  0  0  0  0  0  0
   -1.0579    0.9750    0.7681 H   0  0  0  0  0  0  0  0  0  0  0  0
   -2.0395    3.4616   -0.0264 H   0  0  0  0  0  0  0  0  0  0  0  0
   -3.3168    0.5004   -1.3521 H   0  0  0  0  0  0  0  0  0  0  0  0
   -1.2641   -3.3401   -0.9088 H   0  0  0  0  0  0  0  0  0  0  0  0
    0.6109   -4.5578   -1.7742 H   0  0  0  0  0  0  0  0  0  0  0  0
    3.0125   -4.6294   -2.3226 H   0  0  0  0  0  0  0  0  0  0  0  0
    4.5600   -2.9218   -1.4082 H   0  0  0  0  0  0  0  0  0  0  0  0
    3.1320    0.5556   -1.9024 H   0  0  0  0  0  0  0  0  0  0  0  0
    2.5236    2.9511   -1.7238 H   0  0  0  0  0  0  0  0  0  0  0  0
    2.6199    4.0983    0.4749 H   0  0  0  0  0  0  0  0  0  0  0  0
    3.3502    2.8538    2.4958 H   0  0  0  0  0  0  0  0  0  0  0  0
    3.9693    0.4546    2.3189 H   0  0  0  0  0  0  0  0  0  0  0  0
    1.2935   -1.0561    0.6650 H   0  0  0  0  0  0  0  0  0  0  0  0
  1  2  1  0
  2  3  1  0
  2  4  1  0
  4  5  1  0
  5  6  2  3
  6  7  1  0
  6  8  1  0
  4  9  1  0
  9 10  1  0
 10 11  2  0
 10 12  1  0
 12 13  1  0
 13 14  1  0
 14 15  3  0
 13 16  1  0
 16 17  2  0
 17 18  1  0
 18 19  2  0
 19 20  1  0
 20 21  1  0
 21 22  1  0
 22 23  2  0
 23 24  1  0
 24 25  2  0
 25 26  1  0
 26 27  2  0
 20 28  2  0
  9  2  1  0
 28 16  1  0
 27 22  1  0
  1 29  1  0
  1 30  1  0
  1 31  1  0
  3 32  1  0
  3 33  1  0
  3 34  1  0
  4 35  1  0
  5 36  1  0
  9 37  1  0
 13 38  1  0
 17 39  1  0
 18 40  1  0
 19 41  1  0
 23 42  1  0
 24 43  1  0
 25 44  1  0
 26 45  1  0
 27 46  1  0
 28 47  1  0
M  END
>  <Energy>  (2) 
67.65248335683488

>  <Real charge>  (2) 
0

>  <Mult>  (2) 
1

$$$$
mol_459 398
     RDKit          3D

 47 49  0  0  0  0  0  0  0  0999 V2000
   -3.7690   -1.5063    2.3568 C   0  0  0  0  0  0  0  0  0  0  0  0
   -2.9367   -0.9836    1.2097 C   0  0  0  0  0  0  0  0  0  0  0  0
   -3.7228   -0.1196    0.2520 C   0  0  0  0  0  0  0  0  0  0  0  0
   -1.4722   -0.6303    1.4077 C   0  0  0  0  0  0  0  0  0  0  0  0
   -0.8357   -0.7304    2.7302 C   0  0  0  0  0  0  0  0  0  0  0  0
   -0.8761    0.1742    3.7205 C   0  0  0  0  0  0  0  0  0  0  0  0
   -0.0335   -0.1145    5.2005 Cl  0  0  0  0  0  0  0  0  0  0  0  0
   -1.7507    1.6552    3.5763 Cl  0  0  0  0  0  0  0  0  0  0  0  0
   -1.8499   -1.9040    0.6728 C   0  0  0  0  0  0  0  0  0  0  0  0
   -1.6001   -2.0394   -0.7808 C   0  0  0  0  0  0  0  0  0  0  0  0
   -2.3764   -2.6126   -1.5274 O   0  0  0  0  0  0  0  0  0  0  0  0
   -0.4228   -1.4788   -1.1351 O   0  0  0  0  0  0  0  0  0  0  0  0
   -0.0917   -1.5763   -2.5345 C   0  0  0  0  0  0  0  0  0  0  0  0
    0.5598   -2.8715   -2.8273 C   0  0  0  0  0  0  0  0  0  0  0  0
    1.0689   -3.8926   -3.0491 N   0  0  0  0  0  0  0  0  0  0  0  0
    0.8237   -0.4051   -2.8669 C   0  0  0  0  0  0  0  0  0  0  0  0
    0.7950    0.1762   -4.1461 C   0  0  0  0  0  0  0  0  0  0  0  0
    1.6366    1.2465   -4.4608 C   0  0  0  0  0  0  0  0  0  0  0  0
    2.5104    1.7568   -3.5015 C   0  0  0  0  0  0  0  0  0  0  0  0
    2.5401    1.2005   -2.2251 C   0  0  0  0  0  0  0  0  0  0  0  0
    3.4343    1.7365   -1.3248 O   0  0  0  0  0  0  0  0  0  0  0  0
    2.9809    1.9232   -0.0380 C   0  0  0  0  0  0  0  0  0  0  0  0
    3.7524    1.3997    0.9993 C   0  0  0  0  0  0  0  0  0  0  0  0
    3.3474    1.5789    2.3224 C   0  0  0  0  0  0  0  0  0  0  0  0
    2.1839    2.2958    2.6050 C   0  0  0  0  0  0  0  0  0  0  0  0
    1.4259    2.8388    1.5667 C   0  0  0  0  0  0  0  0  0  0  0  0
    1.8266    2.6592    0.2424 C   0  0  0  0  0  0  0  0  0  0  0  0
    1.7271    0.1059   -1.9177 C   0  0  0  0  0  0  0  0  0  0  0  0
   -4.6366   -2.0540    1.9734 H   0  0  0  0  0  0  0  0  0  0  0  0
   -3.2106   -2.1904    3.0042 H   0  0  0  0  0  0  0  0  0  0  0  0
   -4.1335   -0.6775    2.9724 H   0  0  0  0  0  0  0  0  0  0  0  0
   -4.1847    0.7156    0.7890 H   0  0  0  0  0  0  0  0  0  0  0  0
   -3.0952    0.3045   -0.5390 H   0  0  0  0  0  0  0  0  0  0  0  0
   -4.5172   -0.7043   -0.2234 H   0  0  0  0  0  0  0  0  0  0  0  0
   -1.0713    0.1853    0.8083 H   0  0  0  0  0  0  0  0  0  0  0  0
   -0.2481   -1.6312    2.9006 H   0  0  0  0  0  0  0  0  0  0  0  0
   -1.7194   -2.8480    1.1937 H   0  0  0  0  0  0  0  0  0  0  0  0
   -1.0041   -1.4638   -3.1347 H   0  0  0  0  0  0  0  0  0  0  0  0
    0.1210   -0.2022   -4.9132 H   0  0  0  0  0  0  0  0  0  0  0  0
    1.6122    1.6835   -5.4564 H   0  0  0  0  0  0  0  0  0  0  0  0
    3.1643    2.5893   -3.7471 H   0  0  0  0  0  0  0  0  0  0  0  0
    4.6626    0.8499    0.7769 H   0  0  0  0  0  0  0  0  0  0  0  0
    3.9427    1.1672    3.1334 H   0  0  0  0  0  0  0  0  0  0  0  0
    1.8737    2.4419    3.6371 H   0  0  0  0  0  0  0  0  0  0  0  0
    0.5287    3.4104    1.7903 H   0  0  0  0  0  0  0  0  0  0  0  0
    1.2437    3.0991   -0.5617 H   0  0  0  0  0  0  0  0  0  0  0  0
    1.7964   -0.3473   -0.9308 H   0  0  0  0  0  0  0  0  0  0  0  0
  1  2  1  0
  2  3  1  0
  2  4  1  0
  4  5  1  0
  5  6  2  3
  6  7  1  0
  6  8  1  0
  4  9  1  0
  9 10  1  0
 10 11  2  0
 10 12  1  0
 12 13  1  0
 13 14  1  0
 14 15  3  0
 13 16  1  0
 16 17  2  0
 17 18  1  0
 18 19  2  0
 19 20  1  0
 20 21  1  0
 21 22  1  0
 22 23  2  0
 23 24  1  0
 24 25  2  0
 25 26  1  0
 26 27  2  0
 20 28  2  0
  9  2  1  0
 28 16  1  0
 27 22  1  0
  1 29  1  0
  1 30  1  0
  1 31  1  0
  3 32  1  0
  3 33  1  0
  3 34  1  0
  4 35  1  0
  5 36  1  0
  9 37  1  0
 13 38  1  0
 17 39  1  0
 18 40  1  0
 19 41  1  0
 23 42  1  0
 24 43  1  0
 25 44  1  0
 26 45  1  0
 27 46  1  0
 28 47  1  0
M  END
>  <Energy>  (3) 
67.90899511070522

>  <Real charge>  (3) 
0

>  <Mult>  (3) 
1

$$$$
mol_459 266
     RDKit          3D

 47 49  0  0  0  0  0  0  0  0999 V2000
   -3.6997    1.6876    1.1236 C   0  0  0  0  0  0  0  0  0  0  0  0
   -2.5754    0.7999    0.6460 C   0  0  0  0  0  0  0  0  0  0  0  0
   -2.6980    0.4235   -0.8131 C   0  0  0  0  0  0  0  0  0  0  0  0
   -1.1649    0.9494    1.1878 C   0  0  0  0  0  0  0  0  0  0  0  0
   -0.8149    2.0171    2.1363 C   0  0  0  0  0  0  0  0  0  0  0  0
    0.1893    2.0151    3.0266 C   0  0  0  0  0  0  0  0  0  0  0  0
    1.2541    0.6703    3.2103 Cl  0  0  0  0  0  0  0  0  0  0  0  0
    0.4665    3.3953    4.0281 Cl  0  0  0  0  0  0  0  0  0  0  0  0
   -2.0280   -0.2098    1.6489 C   0  0  0  0  0  0  0  0  0  0  0  0
   -1.6822   -1.5917    1.2431 C   0  0  0  0  0  0  0  0  0  0  0  0
   -2.4792   -2.3289    0.6850 O   0  0  0  0  0  0  0  0  0  0  0  0
   -0.4065   -1.8938    1.5730 O   0  0  0  0  0  0  0  0  0  0  0  0
    0.0937   -3.1255    1.0215 C   0  0  0  0  0  0  0  0  0  0  0  0
    1.0608   -3.7288    1.9652 C   0  0  0  0  0  0  0  0  0  0  0  0
    1.8050   -4.2153    2.7140 N   0  0  0  0  0  0  0  0  0  0  0  0
    0.7419   -2.8126   -0.3187 C   0  0  0  0  0  0  0  0  0  0  0  0
    0.5166   -3.6379   -1.4319 C   0  0  0  0  0  0  0  0  0  0  0  0
    1.1165   -3.3519   -2.6613 C   0  0  0  0  0  0  0  0  0  0  0  0
    1.9377   -2.2331   -2.7979 C   0  0  0  0  0  0  0  0  0  0  0  0
    2.1499   -1.3936   -1.7074 C   0  0  0  0  0  0  0  0  0  0  0  0
    2.9790   -0.3091   -1.8886 O   0  0  0  0  0  0  0  0  0  0  0  0
    2.4897    0.8990   -1.4451 C   0  0  0  0  0  0  0  0  0  0  0  0
    1.3296    1.4575   -1.9867 C   0  0  0  0  0  0  0  0  0  0  0  0
    0.8830    2.6982   -1.5305 C   0  0  0  0  0  0  0  0  0  0  0  0
    1.5993    3.3777   -0.5436 C   0  0  0  0  0  0  0  0  0  0  0  0
    2.7679    2.8235   -0.0183 C   0  0  0  0  0  0  0  0  0  0  0  0
    3.2209    1.5864   -0.4770 C   0  0  0  0  0  0  0  0  0  0  0  0
    1.5815   -1.6940   -0.4673 C   0  0  0  0  0  0  0  0  0  0  0  0
   -3.6623    1.8691    2.2028 H   0  0  0  0  0  0  0  0  0  0  0  0
   -3.6614    2.6559    0.6139 H   0  0  0  0  0  0  0  0  0  0  0  0
   -4.6671    1.2233    0.9043 H   0  0  0  0  0  0  0  0  0  0  0  0
   -1.8488   -0.1721   -1.1648 H   0  0  0  0  0  0  0  0  0  0  0  0
   -2.7443    1.3260   -1.4319 H   0  0  0  0  0  0  0  0  0  0  0  0
   -3.6116   -0.1558   -0.9819 H   0  0  0  0  0  0  0  0  0  0  0  0
   -0.3550    0.7195    0.4987 H   0  0  0  0  0  0  0  0  0  0  0  0
   -1.4148    2.9227    2.0710 H   0  0  0  0  0  0  0  0  0  0  0  0
   -2.4356   -0.1671    2.6542 H   0  0  0  0  0  0  0  0  0  0  0  0
   -0.7223   -3.8466    0.8843 H   0  0  0  0  0  0  0  0  0  0  0  0
   -0.1272   -4.5126   -1.3535 H   0  0  0  0  0  0  0  0  0  0  0  0
    0.9428   -4.0027   -3.5151 H   0  0  0  0  0  0  0  0  0  0  0  0
    2.4053   -2.0126   -3.7536 H   0  0  0  0  0  0  0  0  0  0  0  0
    0.7787    0.9351   -2.7634 H   0  0  0  0  0  0  0  0  0  0  0  0
   -0.0197    3.1373   -1.9472 H   0  0  0  0  0  0  0  0  0  0  0  0
    1.2524    4.3454   -0.1894 H   0  0  0  0  0  0  0  0  0  0  0  0
    3.3294    3.3581    0.7438 H   0  0  0  0  0  0  0  0  0  0  0  0
    4.1346    1.1565   -0.0764 H   0  0  0  0  0  0  0  0  0  0  0  0
    1.7930   -1.0540    0.3871 H   0  0  0  0  0  0  0  0  0  0  0  0
  1  2  1  0
  2  3  1  0
  2  4  1  0
  4  5  1  0
  5  6  2  3
  6  7  1  0
  6  8  1  0
  4  9  1  0
  9 10  1  0
 10 11  2  0
 10 12  1  0
 12 13  1  0
 13 14  1  0
 14 15  3  0
 13 16  1  0
 16 17  2  0
 17 18  1  0
 18 19  2  0
 19 20  1  0
 20 21  1  0
 21 22  1  0
 22 23  2  0
 23 24  1  0
 24 25  2  0
 25 26  1  0
 26 27  2  0
 20 28  2  0
  9  2  1  0
 28 16  1  0
 27 22  1  0
  1 29  1  0
  1 30  1  0
  1 31  1  0
  3 32  1  0
  3 33  1  0
  3 34  1  0
  4 35  1  0
  5 36  1  0
  9 37  1  0
 13 38  1  0
 17 39  1  0
 18 40  1  0
 19 41  1  0
 23 42  1  0
 24 43  1  0
 25 44  1  0
 26 45  1  0
 27 46  1  0
 28 47  1  0
M  END
>  <Energy>  (4) 
67.91386840689167

>  <Real charge>  (4) 
0

>  <Mult>  (4) 
1

$$$$
mol_459 401
     RDKit          3D

 47 49  0  0  0  0  0  0  0  0999 V2000
   -1.9272    2.6578   -2.3886 C   0  0  0  0  0  0  0  0  0  0  0  0
   -2.7011    1.4487   -1.9157 C   0  0  0  0  0  0  0  0  0  0  0  0
   -4.0328    1.2883   -2.6098 C   0  0  0  0  0  0  0  0  0  0  0  0
   -1.8903    0.2352   -1.4879 C   0  0  0  0  0  0  0  0  0  0  0  0
   -2.3399   -1.1287   -1.8072 C   0  0  0  0  0  0  0  0  0  0  0  0
   -2.3225   -2.2078   -1.0095 C   0  0  0  0  0  0  0  0  0  0  0  0
   -1.7703   -2.1399    0.6238 Cl  0  0  0  0  0  0  0  0  0  0  0  0
   -2.8619   -3.7381   -1.6036 Cl  0  0  0  0  0  0  0  0  0  0  0  0
   -2.6392    1.0496   -0.4486 C   0  0  0  0  0  0  0  0  0  0  0  0
   -1.9064    1.8711    0.5430 C   0  0  0  0  0  0  0  0  0  0  0  0
   -2.3499    2.9236    0.9726 O   0  0  0  0  0  0  0  0  0  0  0  0
   -0.7350    1.2984    0.9001 O   0  0  0  0  0  0  0  0  0  0  0  0
    0.0727    2.0722    1.8078 C   0  0  0  0  0  0  0  0  0  0  0  0
    0.7778    3.1544    1.0825 C   0  0  0  0  0  0  0  0  0  0  0  0
    1.3273    3.9988    0.5025 N   0  0  0  0  0  0  0  0  0  0  0  0
    1.0683    1.1316    2.4787 C   0  0  0  0  0  0  0  0  0  0  0  0
    1.6015    1.4560    3.7375 C   0  0  0  0  0  0  0  0  0  0  0  0
    2.5278    0.6138    4.3547 C   0  0  0  0  0  0  0  0  0  0  0  0
    2.9386   -0.5585    3.7207 C   0  0  0  0  0  0  0  0  0  0  0  0
    2.4347   -0.8931    2.4636 C   0  0  0  0  0  0  0  0  0  0  0  0
    2.8906   -2.0848    1.9385 O   0  0  0  0  0  0  0  0  0  0  0  0
    2.6997   -2.3119    0.5980 C   0  0  0  0  0  0  0  0  0  0  0  0
    3.4384   -1.6146   -0.3593 C   0  0  0  0  0  0  0  0  0  0  0  0
    3.2326   -1.8795   -1.7133 C   0  0  0  0  0  0  0  0  0  0  0  0
    2.3058   -2.8488   -2.1025 C   0  0  0  0  0  0  0  0  0  0  0  0
    1.5900   -3.5621   -1.1394 C   0  0  0  0  0  0  0  0  0  0  0  0
    1.7938   -3.3002    0.2152 C   0  0  0  0  0  0  0  0  0  0  0  0
    1.4996   -0.0528    1.8504 C   0  0  0  0  0  0  0  0  0  0  0  0
   -0.9342    2.7232   -1.9316 H   0  0  0  0  0  0  0  0  0  0  0  0
   -1.7878    2.6159   -3.4740 H   0  0  0  0  0  0  0  0  0  0  0  0
   -2.4721    3.5763   -2.1470 H   0  0  0  0  0  0  0  0  0  0  0  0
   -4.6274    0.4684   -2.1937 H   0  0  0  0  0  0  0  0  0  0  0  0
   -4.6240    2.2049   -2.5099 H   0  0  0  0  0  0  0  0  0  0  0  0
   -3.8832    1.0917   -3.6766 H   0  0  0  0  0  0  0  0  0  0  0  0
   -0.8072    0.3354   -1.5260 H   0  0  0  0  0  0  0  0  0  0  0  0
   -2.6894   -1.2696   -2.8289 H   0  0  0  0  0  0  0  0  0  0  0  0
   -3.5438    0.6206   -0.0272 H   0  0  0  0  0  0  0  0  0  0  0  0
   -0.5704    2.4881    2.5946 H   0  0  0  0  0  0  0  0  0  0  0  0
    1.3009    2.3687    4.2499 H   0  0  0  0  0  0  0  0  0  0  0  0
    2.9319    0.8705    5.3311 H   0  0  0  0  0  0  0  0  0  0  0  0
    3.6572   -1.2133    4.2074 H   0  0  0  0  0  0  0  0  0  0  0  0
    4.1659   -0.8683   -0.0532 H   0  0  0  0  0  0  0  0  0  0  0  0
    3.7991   -1.3352   -2.4647 H   0  0  0  0  0  0  0  0  0  0  0  0
    2.1501   -3.0568   -3.1582 H   0  0  0  0  0  0  0  0  0  0  0  0
    0.8779   -4.3250   -1.4434 H   0  0  0  0  0  0  0  0  0  0  0  0
    1.2426   -3.8555    0.9689 H   0  0  0  0  0  0  0  0  0  0  0  0
    1.0915   -0.3186    0.8782 H   0  0  0  0  0  0  0  0  0  0  0  0
  1  2  1  0
  2  3  1  0
  2  4  1  0
  4  5  1  0
  5  6  2  3
  6  7  1  0
  6  8  1  0
  4  9  1  0
  9 10  1  0
 10 11  2  0
 10 12  1  0
 12 13  1  0
 13 14  1  0
 14 15  3  0
 13 16  1  0
 16 17  2  0
 17 18  1  0
 18 19  2  0
 19 20  1  0
 20 21  1  0
 21 22  1  0
 22 23  2  0
 23 24  1  0
 24 25  2  0
 25 26  1  0
 26 27  2  0
 20 28  2  0
  9  2  1  0
 28 16  1  0
 27 22  1  0
  1 29  1  0
  1 30  1  0
  1 31  1  0
  3 32  1  0
  3 33  1  0
  3 34  1  0
  4 35  1  0
  5 36  1  0
  9 37  1  0
 13 38  1  0
 17 39  1  0
 18 40  1  0
 19 41  1  0
 23 42  1  0
 24 43  1  0
 25 44  1  0
 26 45  1  0
 27 46  1  0
 28 47  1  0
M  END
>  <Energy>  (5) 
68.1047848619614

>  <Real charge>  (5) 
0

>  <Mult>  (5) 
1

$$$$
mol_459 271
     RDKit          3D

 47 49  0  0  0  0  0  0  0  0999 V2000
   -4.1082    0.3241   -2.3284 C   0  0  0  0  0  0  0  0  0  0  0  0
   -3.1947    0.0506   -1.1573 C   0  0  0  0  0  0  0  0  0  0  0  0
   -3.8833    0.1983    0.1797 C   0  0  0  0  0  0  0  0  0  0  0  0
   -1.7241    0.4269   -1.2176 C   0  0  0  0  0  0  0  0  0  0  0  0
   -1.1619    1.1117   -2.3922 C   0  0  0  0  0  0  0  0  0  0  0  0
   -1.1233    2.4340   -2.6171 C   0  0  0  0  0  0  0  0  0  0  0  0
   -1.7810    3.5751   -1.5024 Cl  0  0  0  0  0  0  0  0  0  0  0  0
   -0.3901    3.0517   -4.0543 Cl  0  0  0  0  0  0  0  0  0  0  0  0
   -2.1373   -1.0290   -1.3403 C   0  0  0  0  0  0  0  0  0  0  0  0
   -1.8378   -2.0037   -0.2647 C   0  0  0  0  0  0  0  0  0  0  0  0
   -2.5231   -2.9949   -0.0739 O   0  0  0  0  0  0  0  0  0  0  0  0
   -0.7225   -1.6675    0.4197 O   0  0  0  0  0  0  0  0  0  0  0  0
   -0.3775   -2.5470    1.5089 C   0  0  0  0  0  0  0  0  0  0  0  0
   -1.2292   -2.2922    2.6922 C   0  0  0  0  0  0  0  0  0  0  0  0
   -1.9021   -2.0817    3.6162 N   0  0  0  0  0  0  0  0  0  0  0  0
    1.0905   -2.2902    1.8191 C   0  0  0  0  0  0  0  0  0  0  0  0
    1.9531   -3.3523    2.1335 C   0  0  0  0  0  0  0  0  0  0  0  0
    3.2998   -3.1115    2.4184 C   0  0  0  0  0  0  0  0  0  0  0  0
    3.8033   -1.8108    2.3842 C   0  0  0  0  0  0  0  0  0  0  0  0
    2.9630   -0.7475    2.0619 C   0  0  0  0  0  0  0  0  0  0  0  0
    3.5216    0.5123    2.0627 O   0  0  0  0  0  0  0  0  0  0  0  0
    3.0741    1.3928    1.1040 C   0  0  0  0  0  0  0  0  0  0  0  0
    2.5581    2.6146    1.5347 C   0  0  0  0  0  0  0  0  0  0  0  0
    2.1073    3.5438    0.5969 C   0  0  0  0  0  0  0  0  0  0  0  0
    2.1913    3.2569   -0.7665 C   0  0  0  0  0  0  0  0  0  0  0  0
    2.7296    2.0429   -1.1957 C   0  0  0  0  0  0  0  0  0  0  0  0
    3.1793    1.1102   -0.2604 C   0  0  0  0  0  0  0  0  0  0  0  0
    1.6082   -0.9814    1.8121 C   0  0  0  0  0  0  0  0  0  0  0  0
   -3.6265    0.1280   -3.2921 H   0  0  0  0  0  0  0  0  0  0  0  0
   -4.9965   -0.3140   -2.2711 H   0  0  0  0  0  0  0  0  0  0  0  0
   -4.4363    1.3687   -2.3191 H   0  0  0  0  0  0  0  0  0  0  0  0
   -4.3316    1.1938    0.2657 H   0  0  0  0  0  0  0  0  0  0  0  0
   -3.1934    0.0747    1.0210 H   0  0  0  0  0  0  0  0  0  0  0  0
   -4.6785   -0.5473    0.2818 H   0  0  0  0  0  0  0  0  0  0  0  0
   -1.2529    0.7337   -0.2854 H   0  0  0  0  0  0  0  0  0  0  0  0
   -0.7102    0.4651   -3.1426 H   0  0  0  0  0  0  0  0  0  0  0  0
   -2.0833   -1.4873   -2.3236 H   0  0  0  0  0  0  0  0  0  0  0  0
   -0.4823   -3.5878    1.1762 H   0  0  0  0  0  0  0  0  0  0  0  0
    1.5862   -4.3769    2.1642 H   0  0  0  0  0  0  0  0  0  0  0  0
    3.9595   -3.9393    2.6683 H   0  0  0  0  0  0  0  0  0  0  0  0
    4.8513   -1.6268    2.6059 H   0  0  0  0  0  0  0  0  0  0  0  0
    2.5006    2.8382    2.5962 H   0  0  0  0  0  0  0  0  0  0  0  0
    1.6958    4.4940    0.9279 H   0  0  0  0  0  0  0  0  0  0  0  0
    1.8459    3.9865   -1.4953 H   0  0  0  0  0  0  0  0  0  0  0  0
    2.8073    1.8289   -2.2585 H   0  0  0  0  0  0  0  0  0  0  0  0
    3.6129    0.1725   -0.5957 H   0  0  0  0  0  0  0  0  0  0  0  0
    0.9486   -0.1407    1.6054 H   0  0  0  0  0  0  0  0  0  0  0  0
  1  2  1  0
  2  3  1  0
  2  4  1  0
  4  5  1  0
  5  6  2  3
  6  7  1  0
  6  8  1  0
  4  9  1  0
  9 10  1  0
 10 11  2  0
 10 12  1  0
 12 13  1  0
 13 14  1  0
 14 15  3  0
 13 16  1  0
 16 17  2  0
 17 18  1  0
 18 19  2  0
 19 20  1  0
 20 21  1  0
 21 22  1  0
 22 23  2  0
 23 24  1  0
 24 25  2  0
 25 26  1  0
 26 27  2  0
 20 28  2  0
  9  2  1  0
 28 16  1  0
 27 22  1  0
  1 29  1  0
  1 30  1  0
  1 31  1  0
  3 32  1  0
  3 33  1  0
  3 34  1  0
  4 35  1  0
  5 36  1  0
  9 37  1  0
 13 38  1  0
 17 39  1  0
 18 40  1  0
 19 41  1  0
 23 42  1  0
 24 43  1  0
 25 44  1  0
 26 45  1  0
 27 46  1  0
 28 47  1  0
M  END
>  <Energy>  (6) 
68.1819161814965

>  <Real charge>  (6) 
0

>  <Mult>  (6) 
1

$$$$
mol_459 445
     RDKit          3D

 47 49  0  0  0  0  0  0  0  0999 V2000
    3.9193    0.4838   -1.7321 C   0  0  0  0  0  0  0  0  0  0  0  0
    2.6126    0.4043   -0.9786 C   0  0  0  0  0  0  0  0  0  0  0  0
    1.6188    1.4607   -1.4021 C   0  0  0  0  0  0  0  0  0  0  0  0
    2.0411   -0.9323   -0.5345 C   0  0  0  0  0  0  0  0  0  0  0  0
    2.7133   -2.1996   -0.8641 C   0  0  0  0  0  0  0  0  0  0  0  0
    2.7010   -2.8541   -2.0356 C   0  0  0  0  0  0  0  0  0  0  0  0
    1.8596   -2.2566   -3.4174 Cl  0  0  0  0  0  0  0  0  0  0  0  0
    3.5528   -4.3479   -2.2061 Cl  0  0  0  0  0  0  0  0  0  0  0  0
    2.6899   -0.0125    0.4835 C   0  0  0  0  0  0  0  0  0  0  0  0
    1.8903    0.6817    1.5182 C   0  0  0  0  0  0  0  0  0  0  0  0
    2.1170    1.8373    1.8401 O   0  0  0  0  0  0  0  0  0  0  0  0
    0.9487   -0.1288    2.0554 O   0  0  0  0  0  0  0  0  0  0  0  0
    0.1047    0.4999    3.0385 C   0  0  0  0  0  0  0  0  0  0  0  0
   -0.3322   -0.5149    4.0244 C   0  0  0  0  0  0  0  0  0  0  0  0
   -0.6555   -1.3137    4.8045 N   0  0  0  0  0  0  0  0  0  0  0  0
   -1.0776    1.1401    2.3295 C   0  0  0  0  0  0  0  0  0  0  0  0
   -1.3981    2.4883    2.5592 C   0  0  0  0  0  0  0  0  0  0  0  0
   -2.4890    3.0795    1.9178 C   0  0  0  0  0  0  0  0  0  0  0  0
   -3.2663    2.3361    1.0314 C   0  0  0  0  0  0  0  0  0  0  0  0
   -2.9424    1.0061    0.7734 C   0  0  0  0  0  0  0  0  0  0  0  0
   -3.7582    0.3169   -0.0955 O   0  0  0  0  0  0  0  0  0  0  0  0
   -3.1302   -0.4381   -1.0598 C   0  0  0  0  0  0  0  0  0  0  0  0
   -3.5176   -1.7718   -1.1862 C   0  0  0  0  0  0  0  0  0  0  0  0
   -2.9288   -2.5738   -2.1637 C   0  0  0  0  0  0  0  0  0  0  0  0
   -1.9690   -2.0355   -3.0219 C   0  0  0  0  0  0  0  0  0  0  0  0
   -1.6008   -0.6940   -2.9093 C   0  0  0  0  0  0  0  0  0  0  0  0
   -2.1859    0.1099   -1.9314 C   0  0  0  0  0  0  0  0  0  0  0  0
   -1.8683    0.4011    1.4321 C   0  0  0  0  0  0  0  0  0  0  0  0
    3.7552    0.3178   -2.8016 H   0  0  0  0  0  0  0  0  0  0  0  0
    4.3652    1.4763   -1.6066 H   0  0  0  0  0  0  0  0  0  0  0  0
    4.6525   -0.2503   -1.3824 H   0  0  0  0  0  0  0  0  0  0  0  0
    2.0196    2.4608   -1.2071 H   0  0  0  0  0  0  0  0  0  0  0  0
    0.6639    1.3714   -0.8738 H   0  0  0  0  0  0  0  0  0  0  0  0
    1.4119    1.3759   -2.4741 H   0  0  0  0  0  0  0  0  0  0  0  0
    0.9568   -1.0229   -0.5014 H   0  0  0  0  0  0  0  0  0  0  0  0
    3.2629   -2.6599   -0.0442 H   0  0  0  0  0  0  0  0  0  0  0  0
    3.6751   -0.2825    0.8526 H   0  0  0  0  0  0  0  0  0  0  0  0
    0.6696    1.2593    3.5952 H   0  0  0  0  0  0  0  0  0  0  0  0
   -0.8004    3.0928    3.2399 H   0  0  0  0  0  0  0  0  0  0  0  0
   -2.7334    4.1217    2.1096 H   0  0  0  0  0  0  0  0  0  0  0  0
   -4.1180    2.7945    0.5360 H   0  0  0  0  0  0  0  0  0  0  0  0
   -4.2712   -2.1855   -0.5220 H   0  0  0  0  0  0  0  0  0  0  0  0
   -3.2221   -3.6159   -2.2609 H   0  0  0  0  0  0  0  0  0  0  0  0
   -1.5138   -2.6602   -3.7868 H   0  0  0  0  0  0  0  0  0  0  0  0
   -0.8635   -0.2745   -3.5890 H   0  0  0  0  0  0  0  0  0  0  0  0
   -1.9106    1.1581   -1.8591 H   0  0  0  0  0  0  0  0  0  0  0  0
   -1.6491   -0.6491    1.2486 H   0  0  0  0  0  0  0  0  0  0  0  0
  1  2  1  0
  2  3  1  0
  2  4  1  0
  4  5  1  0
  5  6  2  3
  6  7  1  0
  6  8  1  0
  4  9  1  0
  9 10  1  0
 10 11  2  0
 10 12  1  0
 12 13  1  0
 13 14  1  0
 14 15  3  0
 13 16  1  0
 16 17  2  0
 17 18  1  0
 18 19  2  0
 19 20  1  0
 20 21  1  0
 21 22  1  0
 22 23  2  0
 23 24  1  0
 24 25  2  0
 25 26  1  0
 26 27  2  0
 20 28  2  0
  9  2  1  0
 28 16  1  0
 27 22  1  0
  1 29  1  0
  1 30  1  0
  1 31  1  0
  3 32  1  0
  3 33  1  0
  3 34  1  0
  4 35  1  0
  5 36  1  0
  9 37  1  0
 13 38  1  0
 17 39  1  0
 18 40  1  0
 19 41  1  0
 23 42  1  0
 24 43  1  0
 25 44  1  0
 26 45  1  0
 27 46  1  0
 28 47  1  0
M  END
>  <Energy>  (7) 
68.28177992719704

>  <Real charge>  (7) 
0

>  <Mult>  (7) 
1

$$$$
