mol_331 371
     RDKit          3D

 47 47  0  0  0  0  0  0  0  0999 V2000
   -2.9577    2.4977   -0.4195 C   0  0  0  0  0  0  0  0  0  0  0  0
   -1.7663    1.7471   -0.9984 C   0  0  0  0  0  0  0  0  0  0  0  0
   -0.6846    2.7141   -1.4532 C   0  0  0  0  0  0  0  0  0  0  0  0
   -1.2261    0.9107    0.0237 O   0  0  0  0  0  0  0  0  0  0  0  0
   -1.3655   -0.7094   -0.1173 P   0  0  0  0  0  5  0  0  0  0  0  0
   -0.2551   -1.4218   -1.5540 S   0  0  0  0  0  0  0  0  0  0  0  0
   -2.9581   -0.8036   -0.4370 O   0  0  0  0  0  0  0  0  0  0  0  0
   -3.5860   -2.0743   -0.5537 C   0  0  0  0  0  0  0  0  0  0  0  0
   -4.7016   -2.1487    0.4797 C   0  0  0  0  0  0  0  0  0  0  0  0
   -4.1470   -2.2029   -1.9631 C   0  0  0  0  0  0  0  0  0  0  0  0
   -1.1195   -1.4429    1.8405 S   0  0  0  0  0  0  0  0  0  0  0  0
    0.6631   -1.4119    2.1768 C   0  0  0  0  0  0  0  0  0  0  0  0
    1.1879   -0.0329    2.5742 C   0  0  0  0  0  0  0  0  0  0  0  0
    1.2268    0.8716    1.4227 N   0  0  0  0  0  0  0  0  0  0  0  0
    2.5667    1.8617    1.2099 S   0  0  0  0  0  6  0  0  0  0  0  0
    3.0462    2.2439    2.5198 O   0  0  0  0  0  0  0  0  0  0  0  0
    2.2095    2.8448    0.2131 O   0  0  0  0  0  0  0  0  0  0  0  0
    3.7255    0.7428    0.4707 C   0  0  0  0  0  0  0  0  0  0  0  0
    4.8696    0.3540    1.1726 C   0  0  0  0  0  0  0  0  0  0  0  0
    5.7659   -0.5359    0.5804 C   0  0  0  0  0  0  0  0  0  0  0  0
    5.5180   -1.0283   -0.7027 C   0  0  0  0  0  0  0  0  0  0  0  0
    4.3772   -0.6296   -1.4017 C   0  0  0  0  0  0  0  0  0  0  0  0
    3.4785    0.2626   -0.8186 C   0  0  0  0  0  0  0  0  0  0  0  0
   -3.4013    3.1705   -1.1597 H   0  0  0  0  0  0  0  0  0  0  0  0
   -2.6633    3.0850    0.4574 H   0  0  0  0  0  0  0  0  0  0  0  0
   -3.7284    1.7973   -0.0814 H   0  0  0  0  0  0  0  0  0  0  0  0
   -2.0937    1.1512   -1.8571 H   0  0  0  0  0  0  0  0  0  0  0  0
    0.1918    2.1672   -1.8161 H   0  0  0  0  0  0  0  0  0  0  0  0
   -1.0463    3.3644   -2.2556 H   0  0  0  0  0  0  0  0  0  0  0  0
   -0.3480    3.3431   -0.6225 H   0  0  0  0  0  0  0  0  0  0  0  0
   -2.8682   -2.8811   -0.3705 H   0  0  0  0  0  0  0  0  0  0  0  0
   -4.2989   -2.0358    1.4914 H   0  0  0  0  0  0  0  0  0  0  0  0
   -5.4230   -1.3361    0.3385 H   0  0  0  0  0  0  0  0  0  0  0  0
   -5.2331   -3.1035    0.4226 H   0  0  0  0  0  0  0  0  0  0  0  0
   -3.3464   -2.1307   -2.7062 H   0  0  0  0  0  0  0  0  0  0  0  0
   -4.8497   -1.3911   -2.1819 H   0  0  0  0  0  0  0  0  0  0  0  0
   -4.6616   -3.1588   -2.1002 H   0  0  0  0  0  0  0  0  0  0  0  0
    0.8355   -2.1033    3.0086 H   0  0  0  0  0  0  0  0  0  0  0  0
    1.2064   -1.8048    1.3123 H   0  0  0  0  0  0  0  0  0  0  0  0
    2.1961   -0.1749    2.9790 H   0  0  0  0  0  0  0  0  0  0  0  0
    0.5781    0.4137    3.3670 H   0  0  0  0  0  0  0  0  0  0  0  0
    0.3568    1.2867    1.0756 H   0  0  0  0  0  0  0  0  0  0  0  0
    5.0701    0.7373    2.1704 H   0  0  0  0  0  0  0  0  0  0  0  0
    6.6603   -0.8447    1.1162 H   0  0  0  0  0  0  0  0  0  0  0  0
    6.2184   -1.7219   -1.1623 H   0  0  0  0  0  0  0  0  0  0  0  0
    4.1880   -1.0133   -2.4017 H   0  0  0  0  0  0  0  0  0  0  0  0
    2.5930    0.5749   -1.3676 H   0  0  0  0  0  0  0  0  0  0  0  0
  1  2  1  0
  2  3  1  0
  2  4  1  0
  4  5  1  0
  5  6  2  0
  5  7  1  0
  7  8  1  0
  8  9  1  0
  8 10  1  0
  5 11  1  0
 11 12  1  0
 12 13  1  0
 13 14  1  0
 14 15  1  0
 15 16  2  0
 15 17  2  0
 15 18  1  0
 18 19  2  0
 19 20  1  0
 20 21  2  0
 21 22  1  0
 22 23  2  0
 23 18  1  0
  1 24  1  0
  1 25  1  0
  1 26  1  0
  2 27  1  0
  3 28  1  0
  3 29  1  0
  3 30  1  0
  8 31  1  0
  9 32  1  0
  9 33  1  0
  9 34  1  0
 10 35  1  0
 10 36  1  0
 10 37  1  0
 12 38  1  0
 12 39  1  0
 13 40  1  0
 13 41  1  0
 14 42  1  0
 19 43  1  0
 20 44  1  0
 21 45  1  0
 22 46  1  0
 23 47  1  0
M  END
>  <Energy>  (1) 
-111.38578609590301

>  <Real charge>  (1) 
0

>  <Mult>  (1) 
1

$$$$
mol_331 393
     RDKit          3D

 47 47  0  0  0  0  0  0  0  0999 V2000
   -2.2549   -2.4325    0.5024 C   0  0  0  0  0  0  0  0  0  0  0  0
   -1.4590   -1.3621    1.2347 C   0  0  0  0  0  0  0  0  0  0  0  0
   -0.2239   -1.9534    1.8976 C   0  0  0  0  0  0  0  0  0  0  0  0
   -1.0479   -0.3906    0.2745 O   0  0  0  0  0  0  0  0  0  0  0  0
   -1.5266    1.1580    0.4499 P   0  0  0  0  0  5  0  0  0  0  0  0
   -0.7363    2.0054    2.0182 S   0  0  0  0  0  0  0  0  0  0  0  0
   -3.1292    0.9158    0.5830 O   0  0  0  0  0  0  0  0  0  0  0  0
   -4.0111    2.0288    0.6634 C   0  0  0  0  0  0  0  0  0  0  0  0
   -4.9995    1.9350   -0.4907 C   0  0  0  0  0  0  0  0  0  0  0  0
   -4.7354    1.9692    2.0010 C   0  0  0  0  0  0  0  0  0  0  0  0
   -1.2132    2.0315   -1.4398 S   0  0  0  0  0  0  0  0  0  0  0  0
    0.5896    2.0942   -1.6561 C   0  0  0  0  0  0  0  0  0  0  0  0
    1.1421    0.8693   -2.3846 C   0  0  0  0  0  0  0  0  0  0  0  0
    1.0926   -0.3224   -1.5327 N   0  0  0  0  0  0  0  0  0  0  0  0
    2.0849   -1.6202   -1.9278 S   0  0  0  0  0  6  0  0  0  0  0  0
    2.2688   -1.6156   -3.3623 O   0  0  0  0  0  0  0  0  0  0  0  0
    1.5655   -2.7723   -1.2270 O   0  0  0  0  0  0  0  0  0  0  0  0
    3.6080   -1.1592   -1.1468 C   0  0  0  0  0  0  0  0  0  0  0  0
    3.6485   -1.0374    0.2457 C   0  0  0  0  0  0  0  0  0  0  0  0
    4.8404   -0.6667    0.8671 C   0  0  0  0  0  0  0  0  0  0  0  0
    5.9815   -0.4250    0.0998 C   0  0  0  0  0  0  0  0  0  0  0  0
    5.9367   -0.5542   -1.2900 C   0  0  0  0  0  0  0  0  0  0  0  0
    4.7479   -0.9233   -1.9197 C   0  0  0  0  0  0  0  0  0  0  0  0
   -1.6574   -2.8913   -0.2933 H   0  0  0  0  0  0  0  0  0  0  0  0
   -3.1336   -1.9914    0.0197 H   0  0  0  0  0  0  0  0  0  0  0  0
   -2.5907   -3.2173    1.1869 H   0  0  0  0  0  0  0  0  0  0  0  0
   -2.0921   -0.9069    2.0039 H   0  0  0  0  0  0  0  0  0  0  0  0
    0.3707   -1.1704    2.3786 H   0  0  0  0  0  0  0  0  0  0  0  0
   -0.4983   -2.6952    2.6538 H   0  0  0  0  0  0  0  0  0  0  0  0
    0.4274   -2.4340    1.1623 H   0  0  0  0  0  0  0  0  0  0  0  0
   -3.4565    2.9704    0.5894 H   0  0  0  0  0  0  0  0  0  0  0  0
   -5.5523    0.9894   -0.4591 H   0  0  0  0  0  0  0  0  0  0  0  0
   -4.4746    1.9574   -1.4512 H   0  0  0  0  0  0  0  0  0  0  0  0
   -5.7164    2.7614   -0.4681 H   0  0  0  0  0  0  0  0  0  0  0  0
   -5.4448    2.7958    2.1058 H   0  0  0  0  0  0  0  0  0  0  0  0
   -4.0218    2.0178    2.8297 H   0  0  0  0  0  0  0  0  0  0  0  0
   -5.2785    1.0240    2.1121 H   0  0  0  0  0  0  0  0  0  0  0  0
    1.0747    2.2232   -0.6841 H   0  0  0  0  0  0  0  0  0  0  0  0
    0.8068    2.9864   -2.2526 H   0  0  0  0  0  0  0  0  0  0  0  0
    0.5846    0.6848   -3.3096 H   0  0  0  0  0  0  0  0  0  0  0  0
    2.1830    1.0819   -2.6537 H   0  0  0  0  0  0  0  0  0  0  0  0
    0.1952   -0.6255   -1.1417 H   0  0  0  0  0  0  0  0  0  0  0  0
    2.7613   -1.2288    0.8442 H   0  0  0  0  0  0  0  0  0  0  0  0
    4.8820   -0.5685    1.9493 H   0  0  0  0  0  0  0  0  0  0  0  0
    6.9107   -0.1389    0.5874 H   0  0  0  0  0  0  0  0  0  0  0  0
    6.8307   -0.3700   -1.8811 H   0  0  0  0  0  0  0  0  0  0  0  0
    4.7203   -1.0264   -3.0020 H   0  0  0  0  0  0  0  0  0  0  0  0
  1  2  1  0
  2  3  1  0
  2  4  1  0
  4  5  1  0
  5  6  2  0
  5  7  1  0
  7  8  1  0
  8  9  1  0
  8 10  1  0
  5 11  1  0
 11 12  1  0
 12 13  1  0
 13 14  1  0
 14 15  1  0
 15 16  2  0
 15 17  2  0
 15 18  1  0
 18 19  2  0
 19 20  1  0
 20 21  2  0
 21 22  1  0
 22 23  2  0
 23 18  1  0
  1 24  1  0
  1 25  1  0
  1 26  1  0
  2 27  1  0
  3 28  1  0
  3 29  1  0
  3 30  1  0
  8 31  1  0
  9 32  1  0
  9 33  1  0
  9 34  1  0
 10 35  1  0
 10 36  1  0
 10 37  1  0
 12 38  1  0
 12 39  1  0
 13 40  1  0
 13 41  1  0
 14 42  1  0
 19 43  1  0
 20 44  1  0
 21 45  1  0
 22 46  1  0
 23 47  1  0
M  END
>  <Energy>  (2) 
-110.81481603466315

>  <Real charge>  (2) 
0

>  <Mult>  (2) 
1

$$$$
mol_331 501
     RDKit          3D

 47 47  0  0  0  0  0  0  0  0999 V2000
   -2.1021    0.9621    1.9461 C   0  0  0  0  0  0  0  0  0  0  0  0
   -2.4926    1.4590    0.5620 C   0  0  0  0  0  0  0  0  0  0  0  0
   -2.8185    2.9453    0.5879 C   0  0  0  0  0  0  0  0  0  0  0  0
   -1.3906    1.2693   -0.3228 O   0  0  0  0  0  0  0  0  0  0  0  0
   -1.4964    0.1537   -1.5084 P   0  0  0  0  0  5  0  0  0  0  0  0
   -2.9085    0.5758   -2.7876 S   0  0  0  0  0  0  0  0  0  0  0  0
   -1.8058   -1.1577   -0.6005 O   0  0  0  0  0  0  0  0  0  0  0  0
   -1.8910   -2.4381   -1.2132 C   0  0  0  0  0  0  0  0  0  0  0  0
   -3.2856   -2.9938   -0.9616 C   0  0  0  0  0  0  0  0  0  0  0  0
   -0.8304   -3.3350   -0.5904 C   0  0  0  0  0  0  0  0  0  0  0  0
    0.4628   -0.0566   -2.2566 S   0  0  0  0  0  0  0  0  0  0  0  0
    0.9789    1.6591   -2.5728 C   0  0  0  0  0  0  0  0  0  0  0  0
    1.9283    2.1887   -1.4977 C   0  0  0  0  0  0  0  0  0  0  0  0
    1.3113    2.1560   -0.1746 N   0  0  0  0  0  0  0  0  0  0  0  0
    2.2614    2.0944    1.1947 S   0  0  0  0  0  6  0  0  0  0  0  0
    1.3859    2.3394    2.3189 O   0  0  0  0  0  0  0  0  0  0  0  0
    3.4382    2.8997    0.9538 O   0  0  0  0  0  0  0  0  0  0  0  0
    2.7320    0.3849    1.2384 C   0  0  0  0  0  0  0  0  0  0  0  0
    4.0412    0.0102    0.9254 C   0  0  0  0  0  0  0  0  0  0  0  0
    4.3964   -1.3380    0.9699 C   0  0  0  0  0  0  0  0  0  0  0  0
    3.4506   -2.2993    1.3324 C   0  0  0  0  0  0  0  0  0  0  0  0
    2.1473   -1.9179    1.6560 C   0  0  0  0  0  0  0  0  0  0  0  0
    1.7838   -0.5726    1.6122 C   0  0  0  0  0  0  0  0  0  0  0  0
   -1.2233    1.4947    2.3222 H   0  0  0  0  0  0  0  0  0  0  0  0
   -1.8379   -0.0997    1.9157 H   0  0  0  0  0  0  0  0  0  0  0  0
   -2.9210    1.0946    2.6598 H   0  0  0  0  0  0  0  0  0  0  0  0
   -3.3704    0.9023    0.2179 H   0  0  0  0  0  0  0  0  0  0  0  0
   -3.0807    3.2974   -0.4155 H   0  0  0  0  0  0  0  0  0  0  0  0
   -1.9508    3.5326    0.9089 H   0  0  0  0  0  0  0  0  0  0  0  0
   -3.6546    3.1579    1.2609 H   0  0  0  0  0  0  0  0  0  0  0  0
   -1.7160   -2.3661   -2.2920 H   0  0  0  0  0  0  0  0  0  0  0  0
   -3.4010   -3.9906   -1.3980 H   0  0  0  0  0  0  0  0  0  0  0  0
   -3.4970   -3.0536    0.1119 H   0  0  0  0  0  0  0  0  0  0  0  0
   -4.0467   -2.3359   -1.3933 H   0  0  0  0  0  0  0  0  0  0  0  0
   -0.9565   -3.3974    0.4962 H   0  0  0  0  0  0  0  0  0  0  0  0
    0.1701   -2.9274   -0.7662 H   0  0  0  0  0  0  0  0  0  0  0  0
   -0.8698   -4.3460   -1.0072 H   0  0  0  0  0  0  0  0  0  0  0  0
    1.4799    1.6882   -3.5456 H   0  0  0  0  0  0  0  0  0  0  0  0
    0.0897    2.2936   -2.6422 H   0  0  0  0  0  0  0  0  0  0  0  0
    2.8584    1.6101   -1.5104 H   0  0  0  0  0  0  0  0  0  0  0  0
    2.1819    3.2277   -1.7355 H   0  0  0  0  0  0  0  0  0  0  0  0
    0.3328    2.4101   -0.0312 H   0  0  0  0  0  0  0  0  0  0  0  0
    4.7841    0.7550    0.6494 H   0  0  0  0  0  0  0  0  0  0  0  0
    5.4121   -1.6408    0.7266 H   0  0  0  0  0  0  0  0  0  0  0  0
    3.7326   -3.3490    1.3689 H   0  0  0  0  0  0  0  0  0  0  0  0
    1.4171   -2.6694    1.9456 H   0  0  0  0  0  0  0  0  0  0  0  0
    0.7704   -0.2765    1.8695 H   0  0  0  0  0  0  0  0  0  0  0  0
  1  2  1  0
  2  3  1  0
  2  4  1  0
  4  5  1  0
  5  6  2  0
  5  7  1  0
  7  8  1  0
  8  9  1  0
  8 10  1  0
  5 11  1  0
 11 12  1  0
 12 13  1  0
 13 14  1  0
 14 15  1  0
 15 16  2  0
 15 17  2  0
 15 18  1  0
 18 19  2  0
 19 20  1  0
 20 21  2  0
 21 22  1  0
 22 23  2  0
 23 18  1  0
  1 24  1  0
  1 25  1  0
  1 26  1  0
  2 27  1  0
  3 28  1  0
  3 29  1  0
  3 30  1  0
  8 31  1  0
  9 32  1  0
  9 33  1  0
  9 34  1  0
 10 35  1  0
 10 36  1  0
 10 37  1  0
 12 38  1  0
 12 39  1  0
 13 40  1  0
 13 41  1  0
 14 42  1  0
 19 43  1  0
 20 44  1  0
 21 45  1  0
 22 46  1  0
 23 47  1  0
M  END
>  <Energy>  (3) 
-110.573472035018

>  <Real charge>  (3) 
0

>  <Mult>  (3) 
1

$$$$
mol_331 585
     RDKit          3D

 47 47  0  0  0  0  0  0  0  0999 V2000
   -3.7961    3.0716   -0.5133 C   0  0  0  0  0  0  0  0  0  0  0  0
   -2.6488    2.3718   -1.2284 C   0  0  0  0  0  0  0  0  0  0  0  0
   -3.0774    1.9107   -2.6147 C   0  0  0  0  0  0  0  0  0  0  0  0
   -2.2863    1.2222   -0.4727 O   0  0  0  0  0  0  0  0  0  0  0  0
   -0.7896    1.1046    0.1551 P   0  0  0  0  0  5  0  0  0  0  0  0
   -0.3930    2.4755    1.4846 S   0  0  0  0  0  0  0  0  0  0  0  0
   -0.9209   -0.3805    0.8163 O   0  0  0  0  0  0  0  0  0  0  0  0
   -1.9507   -0.6412    1.7664 C   0  0  0  0  0  0  0  0  0  0  0  0
   -1.3014   -1.1612    3.0403 C   0  0  0  0  0  0  0  0  0  0  0  0
   -2.8895   -1.6793    1.1682 C   0  0  0  0  0  0  0  0  0  0  0  0
    0.5212    0.8924   -1.4818 S   0  0  0  0  0  0  0  0  0  0  0  0
    0.1416   -0.7501   -2.1588 C   0  0  0  0  0  0  0  0  0  0  0  0
    1.1254   -1.8202   -1.6822 C   0  0  0  0  0  0  0  0  0  0  0  0
    1.0554   -2.0043   -0.2375 N   0  0  0  0  0  0  0  0  0  0  0  0
    2.3818   -2.5224    0.6280 S   0  0  0  0  0  6  0  0  0  0  0  0
    1.9067   -2.8477    1.9543 O   0  0  0  0  0  0  0  0  0  0  0  0
    3.0943   -3.4825   -0.1857 O   0  0  0  0  0  0  0  0  0  0  0  0
    3.3415   -1.0367    0.7430 C   0  0  0  0  0  0  0  0  0  0  0  0
    2.9425   -0.0393    1.6382 C   0  0  0  0  0  0  0  0  0  0  0  0
    3.6821    1.1391    1.7257 C   0  0  0  0  0  0  0  0  0  0  0  0
    4.8188    1.3098    0.9336 C   0  0  0  0  0  0  0  0  0  0  0  0
    5.2231    0.3026    0.0548 C   0  0  0  0  0  0  0  0  0  0  0  0
    4.4863   -0.8779   -0.0420 C   0  0  0  0  0  0  0  0  0  0  0  0
   -3.4925    3.3847    0.4908 H   0  0  0  0  0  0  0  0  0  0  0  0
   -4.1286    3.9555   -1.0661 H   0  0  0  0  0  0  0  0  0  0  0  0
   -4.6493    2.3962   -0.3847 H   0  0  0  0  0  0  0  0  0  0  0  0
   -1.8014    3.0593   -1.3225 H   0  0  0  0  0  0  0  0  0  0  0  0
   -2.2564    1.3920   -3.1199 H   0  0  0  0  0  0  0  0  0  0  0  0
   -3.3879    2.7559   -3.2363 H   0  0  0  0  0  0  0  0  0  0  0  0
   -3.9063    1.1967   -2.5527 H   0  0  0  0  0  0  0  0  0  0  0  0
   -2.5166    0.2689    1.9914 H   0  0  0  0  0  0  0  0  0  0  0  0
   -0.7292   -2.0745    2.8455 H   0  0  0  0  0  0  0  0  0  0  0  0
   -2.0507   -1.3763    3.8081 H   0  0  0  0  0  0  0  0  0  0  0  0
   -0.5937   -0.4272    3.4395 H   0  0  0  0  0  0  0  0  0  0  0  0
   -3.6951   -1.9344    1.8634 H   0  0  0  0  0  0  0  0  0  0  0  0
   -2.3479   -2.5950    0.9060 H   0  0  0  0  0  0  0  0  0  0  0  0
   -3.3356   -1.3040    0.2411 H   0  0  0  0  0  0  0  0  0  0  0  0
    0.1899   -0.6792   -3.2501 H   0  0  0  0  0  0  0  0  0  0  0  0
   -0.8860   -1.0191   -1.8934 H   0  0  0  0  0  0  0  0  0  0  0  0
    2.1410   -1.5620   -2.0009 H   0  0  0  0  0  0  0  0  0  0  0  0
    0.8641   -2.7715   -2.1591 H   0  0  0  0  0  0  0  0  0  0  0  0
    0.1667   -1.9872    0.2647 H   0  0  0  0  0  0  0  0  0  0  0  0
    2.0619   -0.1716    2.2626 H   0  0  0  0  0  0  0  0  0  0  0  0
    3.3722    1.9253    2.4107 H   0  0  0  0  0  0  0  0  0  0  0  0
    5.3935    2.2303    1.0051 H   0  0  0  0  0  0  0  0  0  0  0  0
    6.1138    0.4396   -0.5537 H   0  0  0  0  0  0  0  0  0  0  0  0
    4.8070   -1.6597   -0.7262 H   0  0  0  0  0  0  0  0  0  0  0  0
  1  2  1  0
  2  3  1  0
  2  4  1  0
  4  5  1  0
  5  6  2  0
  5  7  1  0
  7  8  1  0
  8  9  1  0
  8 10  1  0
  5 11  1  0
 11 12  1  0
 12 13  1  0
 13 14  1  0
 14 15  1  0
 15 16  2  0
 15 17  2  0
 15 18  1  0
 18 19  2  0
 19 20  1  0
 20 21  2  0
 21 22  1  0
 22 23  2  0
 23 18  1  0
  1 24  1  0
  1 25  1  0
  1 26  1  0
  2 27  1  0
  3 28  1  0
  3 29  1  0
  3 30  1  0
  8 31  1  0
  9 32  1  0
  9 33  1  0
  9 34  1  0
 10 35  1  0
 10 36  1  0
 10 37  1  0
 12 38  1  0
 12 39  1  0
 13 40  1  0
 13 41  1  0
 14 42  1  0
 19 43  1  0
 20 44  1  0
 21 45  1  0
 22 46  1  0
 23 47  1  0
M  END
>  <Energy>  (4) 
-110.52765724978431

>  <Real charge>  (4) 
0

>  <Mult>  (4) 
1

$$$$
mol_331 244
     RDKit          3D

 47 47  0  0  0  0  0  0  0  0999 V2000
   -3.6381    3.6496    0.1546 C   0  0  0  0  0  0  0  0  0  0  0  0
   -3.7521    2.5246   -0.8647 C   0  0  0  0  0  0  0  0  0  0  0  0
   -5.2114    2.1930   -1.1434 C   0  0  0  0  0  0  0  0  0  0  0  0
   -3.1276    1.3688   -0.3205 O   0  0  0  0  0  0  0  0  0  0  0  0
   -1.8879    0.6724   -1.1063 P   0  0  0  0  0  5  0  0  0  0  0  0
   -2.3846   -0.0987   -2.8265 S   0  0  0  0  0  0  0  0  0  0  0  0
   -1.4820   -0.4494   -0.0008 O   0  0  0  0  0  0  0  0  0  0  0  0
   -2.4499   -1.3866    0.4565 C   0  0  0  0  0  0  0  0  0  0  0  0
   -1.9003   -2.7862    0.2241 C   0  0  0  0  0  0  0  0  0  0  0  0
   -2.6896   -1.1326    1.9377 C   0  0  0  0  0  0  0  0  0  0  0  0
   -0.2791    2.0290   -1.0435 S   0  0  0  0  0  0  0  0  0  0  0  0
    1.1196    1.1728   -1.8399 C   0  0  0  0  0  0  0  0  0  0  0  0
    1.3854   -0.2541   -1.3488 C   0  0  0  0  0  0  0  0  0  0  0  0
    1.4850   -0.2979    0.1160 N   0  0  0  0  0  0  0  0  0  0  0  0
    2.1729   -1.6619    0.8183 S   0  0  0  0  0  6  0  0  0  0  0  0
    1.9476   -2.7837   -0.0658 O   0  0  0  0  0  0  0  0  0  0  0  0
    1.7364   -1.6753    2.1967 O   0  0  0  0  0  0  0  0  0  0  0  0
    3.8956   -1.2450    0.8018 C   0  0  0  0  0  0  0  0  0  0  0  0
    4.7676   -1.9093   -0.0650 C   0  0  0  0  0  0  0  0  0  0  0  0
    6.1222   -1.5759   -0.0612 C   0  0  0  0  0  0  0  0  0  0  0  0
    6.5976   -0.5908    0.8069 C   0  0  0  0  0  0  0  0  0  0  0  0
    5.7232    0.0629    1.6772 C   0  0  0  0  0  0  0  0  0  0  0  0
    4.3677   -0.2645    1.6799 C   0  0  0  0  0  0  0  0  0  0  0  0
   -4.1193    4.5635   -0.2068 H   0  0  0  0  0  0  0  0  0  0  0  0
   -4.0969    3.3644    1.1079 H   0  0  0  0  0  0  0  0  0  0  0  0
   -2.5876    3.8716    0.3680 H   0  0  0  0  0  0  0  0  0  0  0  0
   -3.2621    2.8289   -1.7958 H   0  0  0  0  0  0  0  0  0  0  0  0
   -5.2904    1.3712   -1.8624 H   0  0  0  0  0  0  0  0  0  0  0  0
   -5.7456    3.0587   -1.5466 H   0  0  0  0  0  0  0  0  0  0  0  0
   -5.7199    1.8599   -0.2317 H   0  0  0  0  0  0  0  0  0  0  0  0
   -3.3931   -1.2710   -0.0879 H   0  0  0  0  0  0  0  0  0  0  0  0
   -2.6084   -3.5510    0.5572 H   0  0  0  0  0  0  0  0  0  0  0  0
   -1.6893   -2.9452   -0.8386 H   0  0  0  0  0  0  0  0  0  0  0  0
   -0.9540   -2.9306    0.7564 H   0  0  0  0  0  0  0  0  0  0  0  0
   -3.0670   -0.1169    2.0965 H   0  0  0  0  0  0  0  0  0  0  0  0
   -3.4141   -1.8411    2.3506 H   0  0  0  0  0  0  0  0  0  0  0  0
   -1.7562   -1.2120    2.5063 H   0  0  0  0  0  0  0  0  0  0  0  0
    2.0078    1.7887   -1.6607 H   0  0  0  0  0  0  0  0  0  0  0  0
    0.9473    1.1603   -2.9209 H   0  0  0  0  0  0  0  0  0  0  0  0
    0.5876   -0.9256   -1.6793 H   0  0  0  0  0  0  0  0  0  0  0  0
    2.3211   -0.6008   -1.8010 H   0  0  0  0  0  0  0  0  0  0  0  0
    0.6642    0.0075    0.6452 H   0  0  0  0  0  0  0  0  0  0  0  0
    4.4048   -2.6832   -0.7375 H   0  0  0  0  0  0  0  0  0  0  0  0
    6.8099   -2.0871   -0.7307 H   0  0  0  0  0  0  0  0  0  0  0  0
    7.6550   -0.3360    0.8096 H   0  0  0  0  0  0  0  0  0  0  0  0
    6.1002    0.8239    2.3563 H   0  0  0  0  0  0  0  0  0  0  0  0
    3.6877    0.2402    2.3625 H   0  0  0  0  0  0  0  0  0  0  0  0
  1  2  1  0
  2  3  1  0
  2  4  1  0
  4  5  1  0
  5  6  2  0
  5  7  1  0
  7  8  1  0
  8  9  1  0
  8 10  1  0
  5 11  1  0
 11 12  1  0
 12 13  1  0
 13 14  1  0
 14 15  1  0
 15 16  2  0
 15 17  2  0
 15 18  1  0
 18 19  2  0
 19 20  1  0
 20 21  2  0
 21 22  1  0
 22 23  2  0
 23 18  1  0
  1 24  1  0
  1 25  1  0
  1 26  1  0
  2 27  1  0
  3 28  1  0
  3 29  1  0
  3 30  1  0
  8 31  1  0
  9 32  1  0
  9 33  1  0
  9 34  1  0
 10 35  1  0
 10 36  1  0
 10 37  1  0
 12 38  1  0
 12 39  1  0
 13 40  1  0
 13 41  1  0
 14 42  1  0
 19 43  1  0
 20 44  1  0
 21 45  1  0
 22 46  1  0
 23 47  1  0
M  END
>  <Energy>  (5) 
-110.51116780813338

>  <Real charge>  (5) 
0

>  <Mult>  (5) 
1

$$$$
