mol_270 237
     RDKit          3D

 19 18  0  0  0  0  0  0  0  0999 V2000
   -1.6563    0.2920    0.9128 C   0  0  0  0  0  0  0  0  0  0  0  0
   -0.9675    0.1060   -0.4416 C   0  0  0  0  0  0  0  0  0  0  0  0
   -1.7141   -0.9501   -1.2590 C   0  0  0  0  0  0  0  0  0  0  0  0
    0.5031   -0.3032   -0.2712 C   0  0  0  0  0  0  0  0  0  0  0  0
    1.3986    0.8186    0.2317 C   0  0  0  0  0  0  0  0  0  0  0  0
    1.0461    1.9967    0.2551 O   0  0  0  0  0  0  0  0  0  0  0  0
    2.7829    0.4156    0.6697 C   0  0  0  0  0  0  0  0  0  0  0  0
   -2.7028    0.5856    0.7769 H   0  0  0  0  0  0  0  0  0  0  0  0
   -1.1694    1.0728    1.5050 H   0  0  0  0  0  0  0  0  0  0  0  0
   -1.6401   -0.6344    1.4973 H   0  0  0  0  0  0  0  0  0  0  0  0
   -1.0226    1.0556   -0.9884 H   0  0  0  0  0  0  0  0  0  0  0  0
   -1.6929   -1.9262   -0.7623 H   0  0  0  0  0  0  0  0  0  0  0  0
   -2.7618   -0.6641   -1.4003 H   0  0  0  0  0  0  0  0  0  0  0  0
   -1.2639   -1.0643   -2.2508 H   0  0  0  0  0  0  0  0  0  0  0  0
    0.5798   -1.1461    0.4256 H   0  0  0  0  0  0  0  0  0  0  0  0
    0.9173   -0.6223   -1.2351 H   0  0  0  0  0  0  0  0  0  0  0  0
    2.7133   -0.2991    1.4934 H   0  0  0  0  0  0  0  0  0  0  0  0
    3.3322    1.2964    1.0138 H   0  0  0  0  0  0  0  0  0  0  0  0
    3.3181   -0.0294   -0.1726 H   0  0  0  0  0  0  0  0  0  0  0  0
  1  2  1  0
  2  3  1  0
  2  4  1  0
  4  5  1  0
  5  6  2  0
  5  7  1  0
  1  8  1  0
  1  9  1  0
  1 10  1  0
  2 11  1  0
  3 12  1  0
  3 13  1  0
  3 14  1  0
  4 15  1  0
  4 16  1  0
  7 17  1  0
  7 18  1  0
  7 19  1  0
M  END
>  <Energy>  (1) 
4.825864824160666

>  <Real charge>  (1) 
0

>  <Mult>  (1) 
1

$$$$
mol_270 99
     RDKit          3D

 19 18  0  0  0  0  0  0  0  0999 V2000
   -1.1408   -1.2515    0.6487 C   0  0  0  0  0  0  0  0  0  0  0  0
   -0.7537    0.1510    0.1747 C   0  0  0  0  0  0  0  0  0  0  0  0
   -1.9912    0.8845   -0.3452 C   0  0  0  0  0  0  0  0  0  0  0  0
    0.3217    0.0998   -0.9170 C   0  0  0  0  0  0  0  0  0  0  0  0
    1.6493   -0.4321   -0.4130 C   0  0  0  0  0  0  0  0  0  0  0  0
    2.0542   -1.5489   -0.7364 O   0  0  0  0  0  0  0  0  0  0  0  0
    2.4439    0.4476    0.5162 C   0  0  0  0  0  0  0  0  0  0  0  0
   -1.9245   -1.1998    1.4122 H   0  0  0  0  0  0  0  0  0  0  0  0
   -1.5167   -1.8617   -0.1797 H   0  0  0  0  0  0  0  0  0  0  0  0
   -0.2847   -1.7703    1.0916 H   0  0  0  0  0  0  0  0  0  0  0  0
   -0.3720    0.7073    1.0392 H   0  0  0  0  0  0  0  0  0  0  0  0
   -2.4250    0.3701   -1.2095 H   0  0  0  0  0  0  0  0  0  0  0  0
   -1.7384    1.9057   -0.6497 H   0  0  0  0  0  0  0  0  0  0  0  0
   -2.7603    0.9494    0.4317 H   0  0  0  0  0  0  0  0  0  0  0  0
   -0.0052   -0.5291   -1.7542 H   0  0  0  0  0  0  0  0  0  0  0  0
    0.5048    1.0988   -1.3306 H   0  0  0  0  0  0  0  0  0  0  0  0
    2.5130    1.4565    0.1017 H   0  0  0  0  0  0  0  0  0  0  0  0
    3.4567    0.0481    0.6202 H   0  0  0  0  0  0  0  0  0  0  0  0
    1.9691    0.4747    1.4992 H   0  0  0  0  0  0  0  0  0  0  0  0
  1  2  1  0
  2  3  1  0
  2  4  1  0
  4  5  1  0
  5  6  2  0
  5  7  1  0
  1  8  1  0
  1  9  1  0
  1 10  1  0
  2 11  1  0
  3 12  1  0
  3 13  1  0
  3 14  1  0
  4 15  1  0
  4 16  1  0
  7 17  1  0
  7 18  1  0
  7 19  1  0
M  END
>  <Energy>  (2) 
5.267208606956368

>  <Real charge>  (2) 
0

>  <Mult>  (2) 
1

$$$$
mol_270 292
     RDKit          3D

 19 18  0  0  0  0  0  0  0  0999 V2000
   -1.7047   -1.1220    0.1860 C   0  0  0  0  0  0  0  0  0  0  0  0
   -1.1142    0.1905    0.7012 C   0  0  0  0  0  0  0  0  0  0  0  0
   -1.4511    1.3539   -0.2313 C   0  0  0  0  0  0  0  0  0  0  0  0
    0.3880    0.0879    1.0058 C   0  0  0  0  0  0  0  0  0  0  0  0
    1.3162   -0.2046   -0.1656 C   0  0  0  0  0  0  0  0  0  0  0  0
    0.9271   -0.3594   -1.3209 O   0  0  0  0  0  0  0  0  0  0  0  0
    2.7836   -0.2985    0.1690 C   0  0  0  0  0  0  0  0  0  0  0  0
   -2.7963   -1.0514    0.1246 H   0  0  0  0  0  0  0  0  0  0  0  0
   -1.3363   -1.3784   -0.8114 H   0  0  0  0  0  0  0  0  0  0  0  0
   -1.4634   -1.9491    0.8618 H   0  0  0  0  0  0  0  0  0  0  0  0
   -1.6075    0.4025    1.6599 H   0  0  0  0  0  0  0  0  0  0  0  0
   -2.5366    1.4839   -0.3027 H   0  0  0  0  0  0  0  0  0  0  0  0
   -1.0727    1.1949   -1.2450 H   0  0  0  0  0  0  0  0  0  0  0  0
   -1.0291    2.2908    0.1473 H   0  0  0  0  0  0  0  0  0  0  0  0
    0.5462   -0.7045    1.7475 H   0  0  0  0  0  0  0  0  0  0  0  0
    0.7239    1.0305    1.4552 H   0  0  0  0  0  0  0  0  0  0  0  0
    3.3565   -0.5100   -0.7382 H   0  0  0  0  0  0  0  0  0  0  0  0
    2.9450   -1.1081    0.8850 H   0  0  0  0  0  0  0  0  0  0  0  0
    3.1252    0.6509    0.5885 H   0  0  0  0  0  0  0  0  0  0  0  0
  1  2  1  0
  2  3  1  0
  2  4  1  0
  4  5  1  0
  5  6  2  0
  5  7  1  0
  1  8  1  0
  1  9  1  0
  1 10  1  0
  2 11  1  0
  3 12  1  0
  3 13  1  0
  3 14  1  0
  4 15  1  0
  4 16  1  0
  7 17  1  0
  7 18  1  0
  7 19  1  0
M  END
>  <Energy>  (3) 
5.781383162219405

>  <Real charge>  (3) 
0

>  <Mult>  (3) 
1

$$$$
