mol_912 50
     RDKit          3D

 22 23  0  0  0  0  0  0  0  0999 V2000
    0.7547   -2.7320    0.1807 Cl  0  0  0  0  0  0  0  0  0  0  0  0
    1.5029   -1.1684    0.1671 C   0  0  0  0  0  0  0  0  0  0  0  0
    2.8995   -1.1345    0.2719 C   0  0  0  0  0  0  0  0  0  0  0  0
    3.5742    0.0827    0.2684 C   0  0  0  0  0  0  0  0  0  0  0  0
    2.8523    1.2676    0.1601 C   0  0  0  0  0  0  0  0  0  0  0  0
    1.4557    1.2369    0.0551 C   0  0  0  0  0  0  0  0  0  0  0  0
    0.6468    2.7645   -0.0754 Cl  0  0  0  0  0  0  0  0  0  0  0  0
    0.7469    0.0173    0.0561 C   0  0  0  0  0  0  0  0  0  0  0  0
   -0.7213   -0.0167   -0.0542 C   0  0  0  0  0  0  0  0  0  0  0  0
   -1.5278    0.0210    1.0943 C   0  0  0  0  0  0  0  0  0  0  0  0
   -2.9199   -0.0113    0.9892 C   0  0  0  0  0  0  0  0  0  0  0  0
   -3.5233   -0.0815   -0.2646 C   0  0  0  0  0  0  0  0  0  0  0  0
   -2.7369   -0.1196   -1.4141 C   0  0  0  0  0  0  0  0  0  0  0  0
   -1.3447   -0.0874   -1.3101 C   0  0  0  0  0  0  0  0  0  0  0  0
    3.4654   -2.0597    0.3568 H   0  0  0  0  0  0  0  0  0  0  0  0
    4.6581    0.1078    0.3499 H   0  0  0  0  0  0  0  0  0  0  0  0
    3.3814    2.2181    0.1575 H   0  0  0  0  0  0  0  0  0  0  0  0
   -1.0728    0.0759    2.0810 H   0  0  0  0  0  0  0  0  0  0  0  0
   -3.5324    0.0185    1.8865 H   0  0  0  0  0  0  0  0  0  0  0  0
   -4.6068   -0.1066   -0.3460 H   0  0  0  0  0  0  0  0  0  0  0  0
   -3.2065   -0.1744   -2.3927 H   0  0  0  0  0  0  0  0  0  0  0  0
   -0.7454   -0.1179   -2.2175 H   0  0  0  0  0  0  0  0  0  0  0  0
  1  2  1  0
  2  3  2  0
  3  4  1  0
  4  5  2  0
  5  6  1  0
  6  7  1  0
  6  8  2  0
  8  9  1  0
  9 10  2  0
 10 11  1  0
 11 12  2  0
 12 13  1  0
 13 14  2  0
  8  2  1  0
 14  9  1  0
  3 15  1  0
  4 16  1  0
  5 17  1  0
 10 18  1  0
 11 19  1  0
 12 20  1  0
 13 21  1  0
 14 22  1  0
M  END
>  <Energy>  (1) 
47.321634770305295

>  <Real charge>  (1) 
0

>  <Mult>  (1) 
1

$$$$
