mol_734 55
     RDKit          3D

 26 27  0  0  0  0  0  0  0  0999 V2000
    1.3010   -0.6952    0.6861 C   0  0  0  0  0  0  0  0  0  0  0  0
    0.6228   -1.2750    1.5317 O   0  0  0  0  0  0  0  0  0  0  0  0
    2.6435   -0.4959    0.8624 N   0  0  0  0  0  0  0  0  0  0  0  0
    3.3028    0.5933    0.3790 C   0  0  0  0  0  0  0  0  0  0  0  0
    4.3498    0.9795    0.8884 O   0  0  0  0  0  0  0  0  0  0  0  0
    2.7015    1.2939   -0.6221 N   0  0  0  0  0  0  0  0  0  0  0  0
    1.3897    1.1584   -0.9940 C   0  0  0  0  0  0  0  0  0  0  0  0
    0.8115    2.0402   -1.6313 O   0  0  0  0  0  0  0  0  0  0  0  0
    0.7293   -0.1627   -0.6243 C   0  0  0  0  0  0  0  0  0  0  0  0
    1.1517   -1.0403   -1.6954 O   0  0  0  0  0  0  0  0  0  0  0  0
   -0.8092   -0.0073   -0.5415 C   0  0  0  0  0  0  0  0  0  0  0  0
   -1.3881    0.5377   -1.7512 O   0  0  0  0  0  0  0  0  0  0  0  0
   -1.2109    0.8868    0.6278 C   0  0  0  0  0  0  0  0  0  0  0  0
   -0.4372    1.6696    1.1751 O   0  0  0  0  0  0  0  0  0  0  0  0
   -2.5136    0.7720    1.0313 N   0  0  0  0  0  0  0  0  0  0  0  0
   -3.2102   -0.3966    0.9701 C   0  0  0  0  0  0  0  0  0  0  0  0
   -4.1720   -0.6016    1.7035 O   0  0  0  0  0  0  0  0  0  0  0  0
   -2.7347   -1.3644    0.1384 N   0  0  0  0  0  0  0  0  0  0  0  0
   -1.4872   -1.3658   -0.4286 C   0  0  0  0  0  0  0  0  0  0  0  0
   -0.9824   -2.4035   -0.8603 O   0  0  0  0  0  0  0  0  0  0  0  0
    3.0328   -0.8608    1.7218 H   0  0  0  0  0  0  0  0  0  0  0  0
    3.1492    2.1658   -0.8695 H   0  0  0  0  0  0  0  0  0  0  0  0
    0.5793   -1.8395   -1.6717 H   0  0  0  0  0  0  0  0  0  0  0  0
   -0.8334    1.2994   -2.0325 H   0  0  0  0  0  0  0  0  0  0  0  0
   -2.7915    1.3736    1.7955 H   0  0  0  0  0  0  0  0  0  0  0  0
   -3.1943   -2.2618    0.2112 H   0  0  0  0  0  0  0  0  0  0  0  0
  1  2  2  0
  1  3  1  0
  3  4  1  0
  4  5  2  0
  4  6  1  0
  6  7  1  0
  7  8  2  0
  7  9  1  0
  9 10  1  0
  9 11  1  0
 11 12  1  0
 11 13  1  0
 13 14  2  0
 13 15  1  0
 15 16  1  0
 16 17  2  0
 16 18  1  0
 18 19  1  0
 19 20  2  0
  9  1  1  0
 19 11  1  0
  3 21  1  0
  6 22  1  0
 10 23  1  0
 12 24  1  0
 15 25  1  0
 18 26  1  0
M  END
>  <Energy>  (1) 
-184.50300541326973

>  <Real charge>  (1) 
0

>  <Mult>  (1) 
1

$$$$
