mol_648 50
     RDKit          3D

 15 15  0  0  0  0  0  0  0  0999 V2000
    2.2156   -0.0568   -0.1391 C   0  0  0  0  0  0  0  0  0  0  0  0
    0.7243    0.0604   -0.0704 C   0  0  0  0  0  0  0  0  0  0  0  0
    0.0625    1.1837   -0.3782 C   0  0  0  0  0  0  0  0  0  0  0  0
   -1.4112    1.2091   -0.2818 C   0  0  0  0  0  0  0  0  0  0  0  0
   -2.0459    2.2207   -0.5562 O   0  0  0  0  0  0  0  0  0  0  0  0
   -2.0039    0.0459    0.1275 N   0  0  0  0  0  0  0  0  0  0  0  0
   -1.3317   -1.0989    0.4413 C   0  0  0  0  0  0  0  0  0  0  0  0
   -2.1218   -2.4760    0.9321 S   0  0  0  0  0  0  0  0  0  0  0  0
    0.0295   -1.0561    0.3313 N   0  0  0  0  0  0  0  0  0  0  0  0
    2.5050   -0.8418   -0.8455 H   0  0  0  0  0  0  0  0  0  0  0  0
    2.6248   -0.3080    0.8451 H   0  0  0  0  0  0  0  0  0  0  0  0
    2.6838    0.8773   -0.4671 H   0  0  0  0  0  0  0  0  0  0  0  0
    0.5460    2.0965   -0.7006 H   0  0  0  0  0  0  0  0  0  0  0  0
   -3.0108    0.0506    0.1973 H   0  0  0  0  0  0  0  0  0  0  0  0
    0.5339   -1.9066    0.5641 H   0  0  0  0  0  0  0  0  0  0  0  0
  1  2  1  0
  2  3  2  0
  3  4  1  0
  4  5  2  0
  4  6  1  0
  6  7  1  0
  7  8  2  0
  7  9  1  0
  9  2  1  0
  1 10  1  0
  1 11  1  0
  1 12  1  0
  3 13  1  0
  6 14  1  0
  9 15  1  0
M  END
>  <Energy>  (1) 
-77.33797640389751

>  <Real charge>  (1) 
0

>  <Mult>  (1) 
1

$$$$
