mol_1060 6
     RDKit          3D

 19 19  0  0  0  0  0  0  0  0999 V2000
   -0.0394   -1.5384    0.3062 C   0  0  0  0  0  0  0  0  0  0  0  0
    1.1483   -0.6667    0.7049 C   0  0  0  0  0  0  0  0  0  0  0  0
    1.5771    0.3516   -0.3497 C   0  0  0  0  0  0  0  0  0  0  0  0
    0.6965    1.5644   -0.4575 C   0  0  0  0  0  0  0  0  0  0  0  0
   -0.6142    1.6526   -0.1828 C   0  0  0  0  0  0  0  0  0  0  0  0
   -1.5544    0.5357    0.1731 C   0  0  0  0  0  0  0  0  0  0  0  0
   -1.1865   -0.8284   -0.4073 C   0  0  0  0  0  0  0  0  0  0  0  0
   -0.4253   -2.0232    1.2119 H   0  0  0  0  0  0  0  0  0  0  0  0
    0.3134   -2.3512   -0.3412 H   0  0  0  0  0  0  0  0  0  0  0  0
    0.9233   -0.1511    1.6477 H   0  0  0  0  0  0  0  0  0  0  0  0
    1.9956   -1.3292    0.9229 H   0  0  0  0  0  0  0  0  0  0  0  0
    2.5766    0.7078   -0.0684 H   0  0  0  0  0  0  0  0  0  0  0  0
    1.6816   -0.1193   -1.3338 H   0  0  0  0  0  0  0  0  0  0  0  0
    1.2104    2.4771   -0.7583 H   0  0  0  0  0  0  0  0  0  0  0  0
   -1.0796    2.6350   -0.2593 H   0  0  0  0  0  0  0  0  0  0  0  0
   -2.5379    0.8059   -0.2329 H   0  0  0  0  0  0  0  0  0  0  0  0
   -1.6722    0.4831    1.2614 H   0  0  0  0  0  0  0  0  0  0  0  0
   -2.0675   -1.4813   -0.3635 H   0  0  0  0  0  0  0  0  0  0  0  0
   -0.9457   -0.7246   -1.4734 H   0  0  0  0  0  0  0  0  0  0  0  0
  1  2  1  0
  2  3  1  0
  3  4  1  0
  4  5  2  0
  5  6  1  0
  6  7  1  0
  7  1  1  0
  1  8  1  0
  1  9  1  0
  2 10  1  0
  2 11  1  0
  3 12  1  0
  3 13  1  0
  4 14  1  0
  5 15  1  0
  6 16  1  0
  6 17  1  0
  7 18  1  0
  7 19  1  0
M  END
>  <Energy>  (1) 
10.534992123527353

>  <Real charge>  (1) 
0

>  <Mult>  (1) 
1

$$$$
mol_1060 5
     RDKit          3D

 19 19  0  0  0  0  0  0  0  0999 V2000
   -0.3995   -1.4590   -0.1682 C   0  0  0  0  0  0  0  0  0  0  0  0
    0.9601   -1.1522    0.4542 C   0  0  0  0  0  0  0  0  0  0  0  0
    1.6679    0.0586   -0.1486 C   0  0  0  0  0  0  0  0  0  0  0  0
    1.0756    1.3874    0.2090 C   0  0  0  0  0  0  0  0  0  0  0  0
   -0.2053    1.7547    0.0643 C   0  0  0  0  0  0  0  0  0  0  0  0
   -1.3172    0.9147   -0.4856 C   0  0  0  0  0  0  0  0  0  0  0  0
   -1.4907   -0.4493    0.1775 C   0  0  0  0  0  0  0  0  0  0  0  0
   -0.7227   -2.4413    0.1990 H   0  0  0  0  0  0  0  0  0  0  0  0
   -0.3033   -1.5523   -1.2567 H   0  0  0  0  0  0  0  0  0  0  0  0
    0.8572   -1.0315    1.5399 H   0  0  0  0  0  0  0  0  0  0  0  0
    1.6036   -2.0279    0.3003 H   0  0  0  0  0  0  0  0  0  0  0  0
    1.7338   -0.0321   -1.2395 H   0  0  0  0  0  0  0  0  0  0  0  0
    2.7030    0.0531    0.2172 H   0  0  0  0  0  0  0  0  0  0  0  0
    1.7760    2.1256    0.5974 H   0  0  0  0  0  0  0  0  0  0  0  0
   -0.4776    2.7719    0.3430 H   0  0  0  0  0  0  0  0  0  0  0  0
   -2.2509    1.4739   -0.3421 H   0  0  0  0  0  0  0  0  0  0  0  0
   -1.1941    0.8077   -1.5701 H   0  0  0  0  0  0  0  0  0  0  0  0
   -2.4496   -0.8654   -0.1573 H   0  0  0  0  0  0  0  0  0  0  0  0
   -1.5663   -0.3364    1.2662 H   0  0  0  0  0  0  0  0  0  0  0  0
  1  2  1  0
  2  3  1  0
  3  4  1  0
  4  5  2  0
  5  6  1  0
  6  7  1  0
  7  1  1  0
  1  8  1  0
  1  9  1  0
  2 10  1  0
  2 11  1  0
  3 12  1  0
  3 13  1  0
  4 14  1  0
  5 15  1  0
  6 16  1  0
  6 17  1  0
  7 18  1  0
  7 19  1  0
M  END
>  <Energy>  (2) 
10.931017150830849

>  <Real charge>  (2) 
0

>  <Mult>  (2) 
1

$$$$
