mol_722 27
     RDKit          3D

 35 36  0  0  0  0  0  0  0  0999 V2000
    3.8719   -0.3350    0.7430 C   0  0  0  0  0  0  0  0  0  0  0  0
    2.6787   -0.1481   -0.0676 N   0  0  0  0  0  0  0  0  0  0  0  0
    2.7635    0.9056   -1.0695 C   0  0  0  0  0  0  0  0  0  0  0  0
    1.4679   -0.6213    0.4638 C   0  0  0  0  0  0  0  0  0  0  0  0
    1.4520   -1.2174    1.5462 O   0  0  0  0  0  0  0  0  0  0  0  0
    0.1670   -0.3648   -0.3406 C   0  0  0  0  0  0  0  0  0  0  0  0
   -0.9072   -1.4327   -0.1071 C   0  0  0  0  0  0  0  0  0  0  0  0
   -1.2693   -2.3035   -1.1499 C   0  0  0  0  0  0  0  0  0  0  0  0
   -2.2551   -3.2746   -0.9604 C   0  0  0  0  0  0  0  0  0  0  0  0
   -2.8926   -3.3912    0.2722 C   0  0  0  0  0  0  0  0  0  0  0  0
   -2.5440   -2.5389    1.3168 C   0  0  0  0  0  0  0  0  0  0  0  0
   -1.5593   -1.5668    1.1293 C   0  0  0  0  0  0  0  0  0  0  0  0
   -0.3821    1.0530   -0.1630 C   0  0  0  0  0  0  0  0  0  0  0  0
   -1.0735    1.6630   -1.2242 C   0  0  0  0  0  0  0  0  0  0  0  0
   -1.5899    2.9530   -1.0917 C   0  0  0  0  0  0  0  0  0  0  0  0
   -1.4311    3.6484    0.1044 C   0  0  0  0  0  0  0  0  0  0  0  0
   -0.7625    3.0523    1.1711 C   0  0  0  0  0  0  0  0  0  0  0  0
   -0.2454    1.7618    1.0417 C   0  0  0  0  0  0  0  0  0  0  0  0
    3.8158   -1.2565    1.3295 H   0  0  0  0  0  0  0  0  0  0  0  0
    3.9717    0.5161    1.4235 H   0  0  0  0  0  0  0  0  0  0  0  0
    4.7492   -0.3939    0.0922 H   0  0  0  0  0  0  0  0  0  0  0  0
    3.7240    0.8347   -1.5888 H   0  0  0  0  0  0  0  0  0  0  0  0
    1.9742    0.8338   -1.8170 H   0  0  0  0  0  0  0  0  0  0  0  0
    2.6920    1.8736   -0.5647 H   0  0  0  0  0  0  0  0  0  0  0  0
    0.4557   -0.4700   -1.3947 H   0  0  0  0  0  0  0  0  0  0  0  0
   -0.7863   -2.2344   -2.1218 H   0  0  0  0  0  0  0  0  0  0  0  0
   -2.5241   -3.9418   -1.7750 H   0  0  0  0  0  0  0  0  0  0  0  0
   -3.6574   -4.1484    0.4210 H   0  0  0  0  0  0  0  0  0  0  0  0
   -3.0339   -2.6316    2.2824 H   0  0  0  0  0  0  0  0  0  0  0  0
   -1.2948   -0.9207    1.9636 H   0  0  0  0  0  0  0  0  0  0  0  0
   -1.2215    1.1302   -2.1613 H   0  0  0  0  0  0  0  0  0  0  0  0
   -2.1242    3.4117   -1.9197 H   0  0  0  0  0  0  0  0  0  0  0  0
   -1.8379    4.6506    0.2095 H   0  0  0  0  0  0  0  0  0  0  0  0
   -0.6497    3.5889    2.1097 H   0  0  0  0  0  0  0  0  0  0  0  0
    0.2586    1.3149    1.8973 H   0  0  0  0  0  0  0  0  0  0  0  0
  1  2  1  0
  2  3  1  0
  2  4  1  0
  4  5  2  0
  4  6  1  0
  6  7  1  0
  7  8  2  0
  8  9  1  0
  9 10  2  0
 10 11  1  0
 11 12  2  0
  6 13  1  0
 13 14  2  0
 14 15  1  0
 15 16  2  0
 16 17  1  0
 17 18  2  0
 12  7  1  0
 18 13  1  0
  1 19  1  0
  1 20  1  0
  1 21  1  0
  3 22  1  0
  3 23  1  0
  3 24  1  0
  6 25  1  0
  8 26  1  0
  9 27  1  0
 10 28  1  0
 11 29  1  0
 12 30  1  0
 14 31  1  0
 15 32  1  0
 16 33  1  0
 17 34  1  0
 18 35  1  0
M  END
>  <Energy>  (1) 
78.17540635661032

>  <Real charge>  (1) 
0

>  <Mult>  (1) 
1

$$$$
mol_722 104
     RDKit          3D

 35 36  0  0  0  0  0  0  0  0999 V2000
    0.2789    3.3150   -2.1778 C   0  0  0  0  0  0  0  0  0  0  0  0
    0.3764    2.4249   -1.0312 N   0  0  0  0  0  0  0  0  0  0  0  0
    0.9151    3.0144    0.1848 C   0  0  0  0  0  0  0  0  0  0  0  0
   -0.1999    1.1525   -1.1176 C   0  0  0  0  0  0  0  0  0  0  0  0
   -0.6365    0.7337   -2.1951 O   0  0  0  0  0  0  0  0  0  0  0  0
   -0.2487    0.2822    0.1661 C   0  0  0  0  0  0  0  0  0  0  0  0
    1.0544   -0.4754    0.4357 C   0  0  0  0  0  0  0  0  0  0  0  0
    1.9150   -0.8809   -0.5971 C   0  0  0  0  0  0  0  0  0  0  0  0
    3.0917   -1.5769   -0.3120 C   0  0  0  0  0  0  0  0  0  0  0  0
    3.4210   -1.8856    1.0057 C   0  0  0  0  0  0  0  0  0  0  0  0
    2.5713   -1.5046    2.0410 C   0  0  0  0  0  0  0  0  0  0  0  0
    1.3948   -0.8082    1.7590 C   0  0  0  0  0  0  0  0  0  0  0  0
   -1.4754   -0.6350    0.2116 C   0  0  0  0  0  0  0  0  0  0  0  0
   -2.5144   -0.3742    1.1219 C   0  0  0  0  0  0  0  0  0  0  0  0
   -3.6359   -1.2043    1.1823 C   0  0  0  0  0  0  0  0  0  0  0  0
   -3.7373   -2.3041    0.3339 C   0  0  0  0  0  0  0  0  0  0  0  0
   -2.7192   -2.5737   -0.5773 C   0  0  0  0  0  0  0  0  0  0  0  0
   -1.5968   -1.7457   -0.6390 C   0  0  0  0  0  0  0  0  0  0  0  0
   -0.1091    2.8141   -3.0679 H   0  0  0  0  0  0  0  0  0  0  0  0
   -0.3903    4.1416   -1.9204 H   0  0  0  0  0  0  0  0  0  0  0  0
    1.2739    3.7089   -2.4055 H   0  0  0  0  0  0  0  0  0  0  0  0
    1.3497    2.2619    0.8433 H   0  0  0  0  0  0  0  0  0  0  0  0
    0.1053    3.5322    0.7066 H   0  0  0  0  0  0  0  0  0  0  0  0
    1.7012    3.7309   -0.0720 H   0  0  0  0  0  0  0  0  0  0  0  0
   -0.3797    0.9852    0.9993 H   0  0  0  0  0  0  0  0  0  0  0  0
    1.6774   -0.6686   -1.6383 H   0  0  0  0  0  0  0  0  0  0  0  0
    3.7479   -1.8842   -1.1223 H   0  0  0  0  0  0  0  0  0  0  0  0
    4.3347   -2.4318    1.2241 H   0  0  0  0  0  0  0  0  0  0  0  0
    2.8201   -1.7567    3.0685 H   0  0  0  0  0  0  0  0  0  0  0  0
    0.7364   -0.5331    2.5804 H   0  0  0  0  0  0  0  0  0  0  0  0
   -2.4609    0.4790    1.7940 H   0  0  0  0  0  0  0  0  0  0  0  0
   -4.4323   -0.9913    1.8905 H   0  0  0  0  0  0  0  0  0  0  0  0
   -4.6109   -2.9485    0.3784 H   0  0  0  0  0  0  0  0  0  0  0  0
   -2.7982   -3.4263   -1.2465 H   0  0  0  0  0  0  0  0  0  0  0  0
   -0.8196   -1.9675   -1.3675 H   0  0  0  0  0  0  0  0  0  0  0  0
  1  2  1  0
  2  3  1  0
  2  4  1  0
  4  5  2  0
  4  6  1  0
  6  7  1  0
  7  8  2  0
  8  9  1  0
  9 10  2  0
 10 11  1  0
 11 12  2  0
  6 13  1  0
 13 14  2  0
 14 15  1  0
 15 16  2  0
 16 17  1  0
 17 18  2  0
 12  7  1  0
 18 13  1  0
  1 19  1  0
  1 20  1  0
  1 21  1  0
  3 22  1  0
  3 23  1  0
  3 24  1  0
  6 25  1  0
  8 26  1  0
  9 27  1  0
 10 28  1  0
 11 29  1  0
 12 30  1  0
 14 31  1  0
 15 32  1  0
 16 33  1  0
 17 34  1  0
 18 35  1  0
M  END
>  <Energy>  (2) 
78.58969490163042

>  <Real charge>  (2) 
0

>  <Mult>  (2) 
1

$$$$
