mol_79 28
     RDKit          3D

 11 10  0  0  0  0  0  0  0  0999 V2000
   -1.3482    0.0190   -0.0559 C   0  0  0  0  0  0  0  0  0  0  0  0
    0.0434   -0.5554    0.1545 C   0  0  0  0  0  0  0  0  0  0  0  0
    1.1135    0.4925   -0.0937 C   0  0  0  0  0  0  0  0  0  0  0  0
    2.8757   -0.2858    0.1868 Br  0  0  0  0  0  0  0  0  0  0  0  0
   -2.1069   -0.7485    0.1269 H   0  0  0  0  0  0  0  0  0  0  0  0
   -1.4719    0.3815   -1.0814 H   0  0  0  0  0  0  0  0  0  0  0  0
   -1.5362    0.8523    0.6287 H   0  0  0  0  0  0  0  0  0  0  0  0
    0.1846   -1.4096   -0.5187 H   0  0  0  0  0  0  0  0  0  0  0  0
    0.1208   -0.9426    1.1777 H   0  0  0  0  0  0  0  0  0  0  0  0
    1.0303    1.3352    0.5981 H   0  0  0  0  0  0  0  0  0  0  0  0
    1.0950    0.8614   -1.1229 H   0  0  0  0  0  0  0  0  0  0  0  0
  1  2  1  0
  2  3  1  0
  3  4  1  0
  1  5  1  0
  1  6  1  0
  1  7  1  0
  2  8  1  0
  2  9  1  0
  3 10  1  0
  3 11  1  0
M  END
>  <Energy>  (1) 
-2.141691237163106

>  <Real charge>  (1) 
0

>  <Mult>  (1) 
1

$$$$
mol_79 60
     RDKit          3D

 11 10  0  0  0  0  0  0  0  0999 V2000
    1.2577    0.2193    0.2483 C   0  0  0  0  0  0  0  0  0  0  0  0
    0.0723   -0.5585   -0.3073 C   0  0  0  0  0  0  0  0  0  0  0  0
   -1.2707    0.0292    0.0932 C   0  0  0  0  0  0  0  0  0  0  0  0
   -1.6423    1.6720   -0.8825 Br  0  0  0  0  0  0  0  0  0  0  0  0
    1.3057    1.2324   -0.1613 H   0  0  0  0  0  0  0  0  0  0  0  0
    1.2028    0.2909    1.3394 H   0  0  0  0  0  0  0  0  0  0  0  0
    2.1929   -0.2882   -0.0094 H   0  0  0  0  0  0  0  0  0  0  0  0
    0.1590   -0.6262   -1.3981 H   0  0  0  0  0  0  0  0  0  0  0  0
    0.1297   -1.5830    0.0797 H   0  0  0  0  0  0  0  0  0  0  0  0
   -1.3219    0.2670    1.1591 H   0  0  0  0  0  0  0  0  0  0  0  0
   -2.0853   -0.6549   -0.1611 H   0  0  0  0  0  0  0  0  0  0  0  0
  1  2  1  0
  2  3  1  0
  3  4  1  0
  1  5  1  0
  1  6  1  0
  1  7  1  0
  2  8  1  0
  2  9  1  0
  3 10  1  0
  3 11  1  0
M  END
>  <Energy>  (2) 
-1.75674639844543

>  <Real charge>  (2) 
0

>  <Mult>  (2) 
1

$$$$
