mol_94 209
     RDKit          3D

 21 20  0  0  0  0  0  0  0  0999 V2000
    3.2995    0.1968   -0.3156 C   0  0  0  0  0  0  0  0  0  0  0  0
    2.0925    0.1090    0.6009 C   0  0  0  0  0  0  0  0  0  0  0  0
    0.7963   -0.0615   -0.1820 C   0  0  0  0  0  0  0  0  0  0  0  0
   -0.2785   -0.1376    0.7529 O   0  0  0  0  0  0  0  0  0  0  0  0
   -1.5516   -0.3746    0.1456 C   0  0  0  0  0  0  0  0  0  0  0  0
   -2.1134    0.9091   -0.4573 C   0  0  0  0  0  0  0  0  0  0  0  0
   -2.4775   -0.8920    1.2409 C   0  0  0  0  0  0  0  0  0  0  0  0
    3.2156    1.0518   -0.9939 H   0  0  0  0  0  0  0  0  0  0  0  0
    3.4013   -0.7114   -0.9181 H   0  0  0  0  0  0  0  0  0  0  0  0
    4.2145    0.3185    0.2726 H   0  0  0  0  0  0  0  0  0  0  0  0
    2.2143   -0.7293    1.2973 H   0  0  0  0  0  0  0  0  0  0  0  0
    2.0306    1.0105    1.2222 H   0  0  0  0  0  0  0  0  0  0  0  0
    0.8337   -0.9820   -0.7756 H   0  0  0  0  0  0  0  0  0  0  0  0
    0.6518    0.7916   -0.8524 H   0  0  0  0  0  0  0  0  0  0  0  0
   -1.4597   -1.1477   -0.6268 H   0  0  0  0  0  0  0  0  0  0  0  0
   -3.1327    0.7597   -0.8271 H   0  0  0  0  0  0  0  0  0  0  0  0
   -1.5002    1.2530   -1.2958 H   0  0  0  0  0  0  0  0  0  0  0  0
   -2.1211    1.7178    0.2817 H   0  0  0  0  0  0  0  0  0  0  0  0
   -2.0680   -1.8059    1.6851 H   0  0  0  0  0  0  0  0  0  0  0  0
   -3.4750   -1.1129    0.8487 H   0  0  0  0  0  0  0  0  0  0  0  0
   -2.5723   -0.1628    2.0533 H   0  0  0  0  0  0  0  0  0  0  0  0
  1  2  1  0
  2  3  1  0
  3  4  1  0
  4  5  1  0
  5  6  1  0
  5  7  1  0
  1  8  1  0
  1  9  1  0
  1 10  1  0
  2 11  1  0
  2 12  1  0
  3 13  1  0
  3 14  1  0
  5 15  1  0
  6 16  1  0
  6 17  1  0
  6 18  1  0
  7 19  1  0
  7 20  1  0
  7 21  1  0
M  END
>  <Energy>  (1) 
5.266670985011746

>  <Real charge>  (1) 
0

>  <Mult>  (1) 
1

$$$$
mol_94 200
     RDKit          3D

 21 20  0  0  0  0  0  0  0  0999 V2000
    2.5860    0.9975    0.4345 C   0  0  0  0  0  0  0  0  0  0  0  0
    2.2828   -0.3919   -0.1084 C   0  0  0  0  0  0  0  0  0  0  0  0
    0.8509   -0.5141   -0.6196 C   0  0  0  0  0  0  0  0  0  0  0  0
   -0.0507   -0.3364    0.4707 O   0  0  0  0  0  0  0  0  0  0  0  0
   -1.4266   -0.4680    0.1040 C   0  0  0  0  0  0  0  0  0  0  0  0
   -1.9376    0.8157   -0.5422 C   0  0  0  0  0  0  0  0  0  0  0  0
   -2.2026   -0.7594    1.3836 C   0  0  0  0  0  0  0  0  0  0  0  0
    3.6277    1.0539    0.7659 H   0  0  0  0  0  0  0  0  0  0  0  0
    2.4330    1.7604   -0.3356 H   0  0  0  0  0  0  0  0  0  0  0  0
    1.9473    1.2394    1.2898 H   0  0  0  0  0  0  0  0  0  0  0  0
    2.4508   -1.1218    0.6920 H   0  0  0  0  0  0  0  0  0  0  0  0
    2.9798   -0.6215   -0.9218 H   0  0  0  0  0  0  0  0  0  0  0  0
    0.7056   -1.5112   -1.0503 H   0  0  0  0  0  0  0  0  0  0  0  0
    0.6666    0.2357   -1.3955 H   0  0  0  0  0  0  0  0  0  0  0  0
   -1.5533   -1.3148   -0.5814 H   0  0  0  0  0  0  0  0  0  0  0  0
   -1.4381    1.0033   -1.4975 H   0  0  0  0  0  0  0  0  0  0  0  0
   -1.7343    1.6826    0.0960 H   0  0  0  0  0  0  0  0  0  0  0  0
   -3.0143    0.7622   -0.7316 H   0  0  0  0  0  0  0  0  0  0  0  0
   -2.0762    0.0482    2.1133 H   0  0  0  0  0  0  0  0  0  0  0  0
   -1.8262   -1.6726    1.8574 H   0  0  0  0  0  0  0  0  0  0  0  0
   -3.2706   -0.8871    1.1822 H   0  0  0  0  0  0  0  0  0  0  0  0
  1  2  1  0
  2  3  1  0
  3  4  1  0
  4  5  1  0
  5  6  1  0
  5  7  1  0
  1  8  1  0
  1  9  1  0
  1 10  1  0
  2 11  1  0
  2 12  1  0
  3 13  1  0
  3 14  1  0
  5 15  1  0
  6 16  1  0
  6 17  1  0
  6 18  1  0
  7 19  1  0
  7 20  1  0
  7 21  1  0
M  END
>  <Energy>  (2) 
5.438308417554124

>  <Real charge>  (2) 
0

>  <Mult>  (2) 
1

$$$$
mol_94 282
     RDKit          3D

 21 20  0  0  0  0  0  0  0  0999 V2000
   -2.7446    0.2928   -0.8586 C   0  0  0  0  0  0  0  0  0  0  0  0
   -2.2397   -0.1518    0.5068 C   0  0  0  0  0  0  0  0  0  0  0  0
   -0.8193    0.3302    0.7853 C   0  0  0  0  0  0  0  0  0  0  0  0
    0.0690   -0.2654   -0.1576 O   0  0  0  0  0  0  0  0  0  0  0  0
    1.4188    0.1935   -0.0459 C   0  0  0  0  0  0  0  0  0  0  0  0
    2.1164   -0.1560   -1.3559 C   0  0  0  0  0  0  0  0  0  0  0  0
    2.1276   -0.4788    1.1254 C   0  0  0  0  0  0  0  0  0  0  0  0
   -3.7738   -0.0482   -1.0094 H   0  0  0  0  0  0  0  0  0  0  0  0
   -2.7329    1.3841   -0.9437 H   0  0  0  0  0  0  0  0  0  0  0  0
   -2.1314   -0.1217   -1.6649 H   0  0  0  0  0  0  0  0  0  0  0  0
   -2.2706   -1.2468    0.5488 H   0  0  0  0  0  0  0  0  0  0  0  0
   -2.9119    0.2314    1.2824 H   0  0  0  0  0  0  0  0  0  0  0  0
   -0.7702    1.4224    0.7082 H   0  0  0  0  0  0  0  0  0  0  0  0
   -0.5359    0.0340    1.8001 H   0  0  0  0  0  0  0  0  0  0  0  0
    1.4342    1.2832    0.0765 H   0  0  0  0  0  0  0  0  0  0  0  0
    2.0952   -1.2364   -1.5370 H   0  0  0  0  0  0  0  0  0  0  0  0
    3.1578    0.1800   -1.3554 H   0  0  0  0  0  0  0  0  0  0  0  0
    1.5994    0.3142   -2.1996 H   0  0  0  0  0  0  0  0  0  0  0  0
    2.0353   -1.5688    1.0653 H   0  0  0  0  0  0  0  0  0  0  0  0
    1.6866   -0.1762    2.0800 H   0  0  0  0  0  0  0  0  0  0  0  0
    3.1899   -0.2158    1.1493 H   0  0  0  0  0  0  0  0  0  0  0  0
  1  2  1  0
  2  3  1  0
  3  4  1  0
  4  5  1  0
  5  6  1  0
  5  7  1  0
  1  8  1  0
  1  9  1  0
  1 10  1  0
  2 11  1  0
  2 12  1  0
  3 13  1  0
  3 14  1  0
  5 15  1  0
  6 16  1  0
  6 17  1  0
  6 18  1  0
  7 19  1  0
  7 20  1  0
  7 21  1  0
M  END
>  <Energy>  (3) 
5.464786480909303

>  <Real charge>  (3) 
0

>  <Mult>  (3) 
1

$$$$
