mol_513 20
     RDKit          3D

 19 20  0  0  0  0  0  0  0  0999 V2000
   -2.6967    0.3385    0.4072 C   0  0  0  0  0  0  0  0  0  0  0  0
   -1.4114   -0.3773    0.2021 C   0  0  0  0  0  0  0  0  0  0  0  0
   -1.2291   -1.7450    0.1477 C   0  0  0  0  0  0  0  0  0  0  0  0
    0.1015   -1.9940   -0.0549 N   0  0  0  0  0  0  0  0  0  0  0  0
    0.8007   -0.8128   -0.1351 C   0  0  0  0  0  0  0  0  0  0  0  0
    2.1678   -0.5843   -0.3336 C   0  0  0  0  0  0  0  0  0  0  0  0
    2.6037    0.7434   -0.3718 C   0  0  0  0  0  0  0  0  0  0  0  0
    1.7068    1.7976   -0.2176 C   0  0  0  0  0  0  0  0  0  0  0  0
    0.3431    1.5507   -0.0200 C   0  0  0  0  0  0  0  0  0  0  0  0
   -0.1230    0.2206    0.0227 C   0  0  0  0  0  0  0  0  0  0  0  0
   -3.5300   -0.3631    0.5169 H   0  0  0  0  0  0  0  0  0  0  0  0
   -2.9121    0.9895   -0.4461 H   0  0  0  0  0  0  0  0  0  0  0  0
   -2.6512    0.9544    1.3111 H   0  0  0  0  0  0  0  0  0  0  0  0
   -1.9340   -2.5609    0.2361 H   0  0  0  0  0  0  0  0  0  0  0  0
    0.5172   -2.9112   -0.1349 H   0  0  0  0  0  0  0  0  0  0  0  0
    2.8690   -1.4033   -0.4540 H   0  0  0  0  0  0  0  0  0  0  0  0
    3.6595    0.9550   -0.5244 H   0  0  0  0  0  0  0  0  0  0  0  0
    2.0665    2.8229   -0.2505 H   0  0  0  0  0  0  0  0  0  0  0  0
   -0.3483    2.3792    0.0992 H   0  0  0  0  0  0  0  0  0  0  0  0
  1  2  1  0
  2  3  2  0
  3  4  1  0
  4  5  1  0
  5  6  2  0
  6  7  1  0
  7  8  2  0
  8  9  1  0
  9 10  2  0
 10  2  1  0
 10  5  1  0
  1 11  1  0
  1 12  1  0
  1 13  1  0
  3 14  1  0
  4 15  1  0
  6 16  1  0
  7 17  1  0
  8 18  1  0
  9 19  1  0
M  END
>  <Energy>  (1) 
16.07028484499857

>  <Real charge>  (1) 
0

>  <Mult>  (1) 
1

$$$$
mol_513 31
     RDKit          3D

 19 20  0  0  0  0  0  0  0  0999 V2000
   -2.4998   -1.0997   -0.3759 C   0  0  0  0  0  0  0  0  0  0  0  0
   -1.4680   -0.0750   -0.0703 C   0  0  0  0  0  0  0  0  0  0  0  0
   -1.7126    1.2417    0.2685 C   0  0  0  0  0  0  0  0  0  0  0  0
   -0.5118    1.8644    0.4739 N   0  0  0  0  0  0  0  0  0  0  0  0
    0.5228    0.9808    0.2766 C   0  0  0  0  0  0  0  0  0  0  0  0
    1.9060    1.1762    0.3757 C   0  0  0  0  0  0  0  0  0  0  0  0
    2.7357    0.0820    0.1157 C   0  0  0  0  0  0  0  0  0  0  0  0
    2.2009   -1.1565   -0.2292 C   0  0  0  0  0  0  0  0  0  0  0  0
    0.8154   -1.3338   -0.3236 C   0  0  0  0  0  0  0  0  0  0  0  0
   -0.0459   -0.2466   -0.0666 C   0  0  0  0  0  0  0  0  0  0  0  0
   -3.1046   -0.7866   -1.2332 H   0  0  0  0  0  0  0  0  0  0  0  0
   -3.1645   -1.2382    0.4830 H   0  0  0  0  0  0  0  0  0  0  0  0
   -2.0528   -2.0690   -0.6154 H   0  0  0  0  0  0  0  0  0  0  0  0
   -2.6409    1.7860    0.3800 H   0  0  0  0  0  0  0  0  0  0  0  0
   -0.3945    2.8336    0.7335 H   0  0  0  0  0  0  0  0  0  0  0  0
    2.3254    2.1400    0.6442 H   0  0  0  0  0  0  0  0  0  0  0  0
    3.8145    0.2007    0.1842 H   0  0  0  0  0  0  0  0  0  0  0  0
    2.8632   -1.9953   -0.4276 H   0  0  0  0  0  0  0  0  0  0  0  0
    0.4115   -2.3047   -0.5935 H   0  0  0  0  0  0  0  0  0  0  0  0
  1  2  1  0
  2  3  2  0
  3  4  1  0
  4  5  1  0
  5  6  2  0
  6  7  1  0
  7  8  2  0
  8  9  1  0
  9 10  2  0
 10  2  1  0
 10  5  1  0
  1 11  1  0
  1 12  1  0
  1 13  1  0
  3 14  1  0
  4 15  1  0
  6 16  1  0
  7 17  1  0
  8 18  1  0
  9 19  1  0
M  END
>  <Energy>  (2) 
16.325482024357726

>  <Real charge>  (2) 
0

>  <Mult>  (2) 
1

$$$$
