mol_27 83
     RDKit          3D

 21 22  0  0  0  0  0  0  0  0999 V2000
    2.9524   -0.4536    0.1157 C   0  0  0  0  0  0  0  0  0  0  0  0
    1.5118   -0.3054    0.0537 N   0  0  0  0  0  0  0  0  0  0  0  0
    1.0150    1.0147    0.1281 C   0  0  0  0  0  0  0  0  0  0  0  0
    1.7823    1.9755    0.2395 O   0  0  0  0  0  0  0  0  0  0  0  0
   -0.3711    1.1793    0.0701 N   0  0  0  0  0  0  0  0  0  0  0  0
   -0.9628    2.5027    0.1399 C   0  0  0  0  0  0  0  0  0  0  0  0
   -1.1738    0.0717   -0.0542 C   0  0  0  0  0  0  0  0  0  0  0  0
   -2.5338    0.0547   -0.1245 N   0  0  0  0  0  0  0  0  0  0  0  0
   -2.8414   -1.2227   -0.2365 C   0  0  0  0  0  0  0  0  0  0  0  0
   -1.7234   -2.0166   -0.2396 N   0  0  0  0  0  0  0  0  0  0  0  0
   -0.6519   -1.1811   -0.1222 C   0  0  0  0  0  0  0  0  0  0  0  0
    0.7363   -1.4605   -0.0728 C   0  0  0  0  0  0  0  0  0  0  0  0
    1.1763   -2.6036   -0.1366 O   0  0  0  0  0  0  0  0  0  0  0  0
    3.4033    0.1052   -0.7110 H   0  0  0  0  0  0  0  0  0  0  0  0
    3.3135   -0.0282    1.0578 H   0  0  0  0  0  0  0  0  0  0  0  0
    3.2699   -1.4973    0.0531 H   0  0  0  0  0  0  0  0  0  0  0  0
   -1.5375    2.6857   -0.7736 H   0  0  0  0  0  0  0  0  0  0  0  0
   -1.6280    2.5513    1.0078 H   0  0  0  0  0  0  0  0  0  0  0  0
   -0.2043    3.2837    0.2373 H   0  0  0  0  0  0  0  0  0  0  0  0
   -3.8411   -1.6299   -0.3180 H   0  0  0  0  0  0  0  0  0  0  0  0
   -1.6916   -3.0255   -0.3141 H   0  0  0  0  0  0  0  0  0  0  0  0
  1  2  1  0
  2  3  1  0
  3  4  2  0
  3  5  1  0
  5  6  1  0
  5  7  1  0
  7  8  1  0
  8  9  2  0
  9 10  1  0
 10 11  1  0
 11 12  1  0
 12 13  2  0
 12  2  1  0
 11  7  2  0
  1 14  1  0
  1 15  1  0
  1 16  1  0
  6 17  1  0
  6 18  1  0
  6 19  1  0
  9 20  1  0
 10 21  1  0
M  END
>  <Energy>  (1) 
-125.25914934586555

>  <Real charge>  (1) 
0

>  <Mult>  (1) 
1

$$$$
