mol_670 210
     RDKit          3D

 13 13  0  0  0  0  0  0  0  0999 V2000
    2.2501    0.1824   -0.4986 N   0  0  0  0  0  0  0  0  0  0  0  0
    0.9137    0.0082   -0.2634 C   0  0  0  0  0  0  0  0  0  0  0  0
    0.1164    1.1288    0.2896 C   0  0  0  0  0  0  0  0  0  0  0  0
   -1.1745    0.8708    0.4928 C   0  0  0  0  0  0  0  0  0  0  0  0
   -1.6743   -0.3605    0.1967 N   0  0  0  0  0  0  0  0  0  0  0  0
   -0.9183   -1.3869   -0.3189 C   0  0  0  0  0  0  0  0  0  0  0  0
   -1.4608   -2.4629   -0.5545 O   0  0  0  0  0  0  0  0  0  0  0  0
    0.4164   -1.1587   -0.5401 N   0  0  0  0  0  0  0  0  0  0  0  0
    2.7526    0.7761    0.1490 H   0  0  0  0  0  0  0  0  0  0  0  0
    2.7184   -0.7041   -0.6648 H   0  0  0  0  0  0  0  0  0  0  0  0
    0.5792    2.0835    0.4894 H   0  0  0  0  0  0  0  0  0  0  0  0
   -1.8678    1.6055    0.8863 H   0  0  0  0  0  0  0  0  0  0  0  0
   -2.6511   -0.5821    0.3364 H   0  0  0  0  0  0  0  0  0  0  0  0
  1  2  1  0
  2  3  1  0
  3  4  2  0
  4  5  1  0
  5  6  1  0
  6  7  2  0
  6  8  1  0
  8  2  2  0
  1  9  1  0
  1 10  1  0
  3 11  1  0
  4 12  1  0
  5 13  1  0
M  END
>  <Energy>  (1) 
-88.83941410051602

>  <Real charge>  (1) 
0

>  <Mult>  (1) 
1

$$$$
