mol_241 28
     RDKit          3D

 17 17  0  0  0  0  0  0  0  0999 V2000
   -0.3449    2.2801    1.4440 O   0  0  0  0  0  0  0  0  0  0  0  0
   -0.2214    1.3640    0.6325 C   0  0  0  0  0  0  0  0  0  0  0  0
   -1.4135    0.5728    0.1423 C   0  0  0  0  0  0  0  0  0  0  0  0
   -1.0990   -0.9168    0.1252 C   0  0  0  0  0  0  0  0  0  0  0  0
    0.1925   -1.2143   -0.6335 C   0  0  0  0  0  0  0  0  0  0  0  0
    1.3665   -0.4419   -0.0358 C   0  0  0  0  0  0  0  0  0  0  0  0
    1.1071    1.0583   -0.0223 C   0  0  0  0  0  0  0  0  0  0  0  0
   -2.2673    0.7653    0.8003 H   0  0  0  0  0  0  0  0  0  0  0  0
   -1.6684    0.9299   -0.8613 H   0  0  0  0  0  0  0  0  0  0  0  0
   -1.9311   -1.4638   -0.3319 H   0  0  0  0  0  0  0  0  0  0  0  0
   -1.0020   -1.2814    1.1556 H   0  0  0  0  0  0  0  0  0  0  0  0
    0.4021   -2.2892   -0.5943 H   0  0  0  0  0  0  0  0  0  0  0  0
    0.0721   -0.9471   -1.6903 H   0  0  0  0  0  0  0  0  0  0  0  0
    2.2776   -0.6532   -0.6067 H   0  0  0  0  0  0  0  0  0  0  0  0
    1.5413   -0.7915    0.9895 H   0  0  0  0  0  0  0  0  0  0  0  0
    1.9044    1.5689    0.5279 H   0  0  0  0  0  0  0  0  0  0  0  0
    1.0838    1.4600   -1.0410 H   0  0  0  0  0  0  0  0  0  0  0  0
  1  2  2  0
  2  3  1  0
  3  4  1  0
  4  5  1  0
  5  6  1  0
  6  7  1  0
  7  2  1  0
  3  8  1  0
  3  9  1  0
  4 10  1  0
  4 11  1  0
  5 12  1  0
  5 13  1  0
  6 14  1  0
  6 15  1  0
  7 16  1  0
  7 17  1  0
M  END
>  <Energy>  (1) 
1.0610557180278013

>  <Real charge>  (1) 
0

>  <Mult>  (1) 
1

$$$$
