mol_434 55
     RDKit          3D

 26 26  0  0  0  0  0  0  0  0999 V2000
    3.0970   -0.8635    0.9612 C   0  0  0  0  0  0  0  0  0  0  0  0
    2.5507    0.2846    0.2501 N   0  0  0  0  0  0  0  0  0  0  0  0
    3.4144    0.8864   -0.7521 C   0  0  0  0  0  0  0  0  0  0  0  0
    1.1843    0.4275    0.1583 C   0  0  0  0  0  0  0  0  0  0  0  0
    0.3012   -0.2622    0.8031 N   0  0  0  0  0  0  0  0  0  0  0  0
   -1.0388    0.0651    0.5467 C   0  0  0  0  0  0  0  0  0  0  0  0
   -1.6452    1.0901    1.2842 C   0  0  0  0  0  0  0  0  0  0  0  0
   -2.9790    1.4354    1.0623 C   0  0  0  0  0  0  0  0  0  0  0  0
   -3.7152    0.7463    0.1033 C   0  0  0  0  0  0  0  0  0  0  0  0
   -5.3590    1.1706   -0.1785 Cl  0  0  0  0  0  0  0  0  0  0  0  0
   -3.1321   -0.2884   -0.6283 C   0  0  0  0  0  0  0  0  0  0  0  0
   -1.7921   -0.6454   -0.4057 C   0  0  0  0  0  0  0  0  0  0  0  0
   -1.1735   -1.7677   -1.1899 C   0  0  0  0  0  0  0  0  0  0  0  0
    2.9572   -1.7774    0.3743 H   0  0  0  0  0  0  0  0  0  0  0  0
    4.1680   -0.7368    1.1518 H   0  0  0  0  0  0  0  0  0  0  0  0
    2.6110   -0.9916    1.9343 H   0  0  0  0  0  0  0  0  0  0  0  0
    4.4439    0.9681   -0.3879 H   0  0  0  0  0  0  0  0  0  0  0  0
    3.4150    0.2834   -1.6659 H   0  0  0  0  0  0  0  0  0  0  0  0
    3.0779    1.8981   -1.0027 H   0  0  0  0  0  0  0  0  0  0  0  0
    0.8892    1.2234   -0.5529 H   0  0  0  0  0  0  0  0  0  0  0  0
   -1.0675    1.6170    2.0394 H   0  0  0  0  0  0  0  0  0  0  0  0
   -3.4329    2.2345    1.6411 H   0  0  0  0  0  0  0  0  0  0  0  0
   -3.7230   -0.8227   -1.3682 H   0  0  0  0  0  0  0  0  0  0  0  0
   -1.9193   -2.2880   -1.8002 H   0  0  0  0  0  0  0  0  0  0  0  0
   -0.7302   -2.5077   -0.5157 H   0  0  0  0  0  0  0  0  0  0  0  0
   -0.4019   -1.3791   -1.8621 H   0  0  0  0  0  0  0  0  0  0  0  0
  1  2  1  0
  2  3  1  0
  2  4  1  0
  4  5  2  3
  5  6  1  0
  6  7  2  0
  7  8  1  0
  8  9  2  0
  9 10  1  0
  9 11  1  0
 11 12  2  0
 12 13  1  0
 12  6  1  0
  1 14  1  0
  1 15  1  0
  1 16  1  0
  3 17  1  0
  3 18  1  0
  3 19  1  0
  4 20  1  0
  7 21  1  0
  8 22  1  0
 11 23  1  0
 13 24  1  0
 13 25  1  0
 13 26  1  0
M  END
>  <Energy>  (1) 
-12.683436873557833

>  <Real charge>  (1) 
0

>  <Mult>  (1) 
1

$$$$
