mol_98 7
     RDKit          3D

 22 23  0  0  0  0  0  0  0  0999 V2000
   -3.7971    2.4417   -0.8798 Cl  0  0  0  0  0  0  0  0  0  0  0  0
   -2.9103    1.0370   -0.4342 C   0  0  0  0  0  0  0  0  0  0  0  0
   -3.5892   -0.1291   -0.0935 C   0  0  0  0  0  0  0  0  0  0  0  0
   -2.8669   -1.2662    0.2688 C   0  0  0  0  0  0  0  0  0  0  0  0
   -1.4676   -1.2345    0.2883 C   0  0  0  0  0  0  0  0  0  0  0  0
   -0.6441   -2.6798    0.7647 Cl  0  0  0  0  0  0  0  0  0  0  0  0
   -0.7674   -0.0613   -0.0567 C   0  0  0  0  0  0  0  0  0  0  0  0
   -1.5153    1.0756   -0.4171 C   0  0  0  0  0  0  0  0  0  0  0  0
    0.6999    0.0225   -0.0553 C   0  0  0  0  0  0  0  0  0  0  0  0
    1.3783    0.6678    0.9895 C   0  0  0  0  0  0  0  0  0  0  0  0
    2.7736    0.7520    0.9905 C   0  0  0  0  0  0  0  0  0  0  0  0
    3.5122    0.1942   -0.0556 C   0  0  0  0  0  0  0  0  0  0  0  0
    5.2324    0.3365    0.0091 Cl  0  0  0  0  0  0  0  0  0  0  0  0
    2.8498   -0.4491   -1.1055 C   0  0  0  0  0  0  0  0  0  0  0  0
    3.6935   -1.1594   -2.4359 Cl  0  0  0  0  0  0  0  0  0  0  0  0
    1.4524   -0.5314   -1.1034 C   0  0  0  0  0  0  0  0  0  0  0  0
   -4.6758   -0.1600   -0.1065 H   0  0  0  0  0  0  0  0  0  0  0  0
   -3.3998   -2.1755    0.5375 H   0  0  0  0  0  0  0  0  0  0  0  0
   -1.0027    1.9963   -0.6911 H   0  0  0  0  0  0  0  0  0  0  0  0
    0.8216    1.1044    1.8175 H   0  0  0  0  0  0  0  0  0  0  0  0
    3.2780    1.2533    1.8134 H   0  0  0  0  0  0  0  0  0  0  0  0
    0.9443   -1.0349   -1.9242 H   0  0  0  0  0  0  0  0  0  0  0  0
  1  2  1  0
  2  3  2  0
  3  4  1  0
  4  5  2  0
  5  6  1  0
  5  7  1  0
  7  8  2  0
  7  9  1  0
  9 10  2  0
 10 11  1  0
 11 12  2  0
 12 13  1  0
 12 14  1  0
 14 15  1  0
 14 16  2  0
  8  2  1  0
 16  9  1  0
  3 17  1  0
  4 18  1  0
  8 19  1  0
 10 20  1  0
 11 21  1  0
 16 22  1  0
M  END
>  <Energy>  (1) 
45.98429811455405

>  <Real charge>  (1) 
0

>  <Mult>  (1) 
1

$$$$
mol_98 20
     RDKit          3D

 22 23  0  0  0  0  0  0  0  0999 V2000
    3.6805    2.4937   -1.3075 Cl  0  0  0  0  0  0  0  0  0  0  0  0
    2.8520    1.0646   -0.8285 C   0  0  0  0  0  0  0  0  0  0  0  0
    3.5712   -0.1014   -0.5836 C   0  0  0  0  0  0  0  0  0  0  0  0
    2.8962   -1.2587   -0.1950 C   0  0  0  0  0  0  0  0  0  0  0  0
    1.5036   -1.2473   -0.0535 C   0  0  0  0  0  0  0  0  0  0  0  0
    0.7414   -2.7178    0.4470 Cl  0  0  0  0  0  0  0  0  0  0  0  0
    0.7627   -0.0744   -0.3003 C   0  0  0  0  0  0  0  0  0  0  0  0
    1.4634    1.0831   -0.6892 C   0  0  0  0  0  0  0  0  0  0  0  0
   -0.6996   -0.0107   -0.1680 C   0  0  0  0  0  0  0  0  0  0  0  0
   -1.5349   -0.5402   -1.1631 C   0  0  0  0  0  0  0  0  0  0  0  0
   -2.9256   -0.4750   -1.0380 C   0  0  0  0  0  0  0  0  0  0  0  0
   -3.5028    0.1241    0.0839 C   0  0  0  0  0  0  0  0  0  0  0  0
   -5.2271    0.1719    0.1731 Cl  0  0  0  0  0  0  0  0  0  0  0  0
   -2.6832    0.6592    1.0823 C   0  0  0  0  0  0  0  0  0  0  0  0
   -3.3222    1.4185    2.4971 Cl  0  0  0  0  0  0  0  0  0  0  0  0
   -1.2907    0.5921    0.9538 C   0  0  0  0  0  0  0  0  0  0  0  0
    4.6529   -0.1165   -0.6912 H   0  0  0  0  0  0  0  0  0  0  0  0
    3.4610   -2.1678   -0.0007 H   0  0  0  0  0  0  0  0  0  0  0  0
    0.9187    2.0045   -0.8888 H   0  0  0  0  0  0  0  0  0  0  0  0
   -1.1050   -1.0132   -2.0449 H   0  0  0  0  0  0  0  0  0  0  0  0
   -3.5526   -0.8959   -1.8206 H   0  0  0  0  0  0  0  0  0  0  0  0
   -0.6598    1.0071    1.7381 H   0  0  0  0  0  0  0  0  0  0  0  0
  1  2  1  0
  2  3  2  0
  3  4  1  0
  4  5  2  0
  5  6  1  0
  5  7  1  0
  7  8  2  0
  7  9  1  0
  9 10  2  0
 10 11  1  0
 11 12  2  0
 12 13  1  0
 12 14  1  0
 14 15  1  0
 14 16  2  0
  8  2  1  0
 16  9  1  0
  3 17  1  0
  4 18  1  0
  8 19  1  0
 10 20  1  0
 11 21  1  0
 16 22  1  0
M  END
>  <Energy>  (2) 
45.98816277712293

>  <Real charge>  (2) 
0

>  <Mult>  (2) 
1

$$$$
