mol_463 2
     RDKit          3D

 12 12  0  0  0  0  0  0  0  0999 V2000
   -1.7614   -2.0584    0.0687 F   0  0  0  0  0  0  0  0  0  0  0  0
   -0.8951   -1.0374    0.0348 C   0  0  0  0  0  0  0  0  0  0  0  0
   -1.3788    0.2691    0.0284 C   0  0  0  0  0  0  0  0  0  0  0  0
   -0.4821    1.3380   -0.0069 C   0  0  0  0  0  0  0  0  0  0  0  0
    0.8903    1.0865   -0.0354 C   0  0  0  0  0  0  0  0  0  0  0  0
    1.3512   -0.2283   -0.0283 C   0  0  0  0  0  0  0  0  0  0  0  0
    2.6697   -0.4623   -0.0558 F   0  0  0  0  0  0  0  0  0  0  0  0
    0.4680   -1.2987    0.0067 C   0  0  0  0  0  0  0  0  0  0  0  0
   -2.4502    0.4441    0.0509 H   0  0  0  0  0  0  0  0  0  0  0  0
   -0.8507    2.3606   -0.0121 H   0  0  0  0  0  0  0  0  0  0  0  0
    1.6039    1.9044   -0.0630 H   0  0  0  0  0  0  0  0  0  0  0  0
    0.8352   -2.3176    0.0119 H   0  0  0  0  0  0  0  0  0  0  0  0
  1  2  1  0
  2  3  2  0
  3  4  1  0
  4  5  2  0
  5  6  1  0
  6  7  1  0
  6  8  2  0
  8  2  1  0
  3  9  1  0
  4 10  1  0
  5 11  1  0
  8 12  1  0
M  END
>  <Energy>  (1) 
4.156954556480981

>  <Real charge>  (1) 
0

>  <Mult>  (1) 
1

$$$$
