mol_828 185
     RDKit          3D

 25 25  0  0  0  0  0  0  0  0999 V2000
   -3.1276    1.3736    0.6680 C   0  0  0  0  0  0  0  0  0  0  0  0
   -2.4660    0.8050   -0.4638 O   0  0  0  0  0  0  0  0  0  0  0  0
   -2.2599   -0.5808   -0.2018 N   0  0  0  0  0  0  0  0  0  0  0  0
   -3.1869   -1.3898   -0.9679 C   0  0  0  0  0  0  0  0  0  0  0  0
   -0.9124   -0.9766   -0.1869 C   0  0  0  0  0  0  0  0  0  0  0  0
   -0.5788   -2.1519   -0.3088 O   0  0  0  0  0  0  0  0  0  0  0  0
   -0.0571    0.0905    0.0021 N   0  0  0  0  0  0  0  0  0  0  0  0
    1.3404    0.0872    0.1296 C   0  0  0  0  0  0  0  0  0  0  0  0
    2.1118   -1.0749    0.2033 C   0  0  0  0  0  0  0  0  0  0  0  0
    3.5030   -0.9955    0.3364 C   0  0  0  0  0  0  0  0  0  0  0  0
    4.1256    0.2478    0.3986 C   0  0  0  0  0  0  0  0  0  0  0  0
    5.8349    0.3445    0.5628 Cl  0  0  0  0  0  0  0  0  0  0  0  0
    3.3691    1.4141    0.3303 C   0  0  0  0  0  0  0  0  0  0  0  0
    1.9796    1.3324    0.1975 C   0  0  0  0  0  0  0  0  0  0  0  0
   -3.2585    2.4432    0.4836 H   0  0  0  0  0  0  0  0  0  0  0  0
   -4.1132    0.9183    0.8045 H   0  0  0  0  0  0  0  0  0  0  0  0
   -2.5221    1.2453    1.5709 H   0  0  0  0  0  0  0  0  0  0  0  0
   -2.9468   -1.3008   -2.0319 H   0  0  0  0  0  0  0  0  0  0  0  0
   -4.2082   -1.0432   -0.7897 H   0  0  0  0  0  0  0  0  0  0  0  0
   -3.0993   -2.4383   -0.6694 H   0  0  0  0  0  0  0  0  0  0  0  0
   -0.5320    0.9805   -0.0684 H   0  0  0  0  0  0  0  0  0  0  0  0
    1.6601   -2.0615    0.1640 H   0  0  0  0  0  0  0  0  0  0  0  0
    4.0877   -1.9099    0.3911 H   0  0  0  0  0  0  0  0  0  0  0  0
    3.8508    2.3867    0.3792 H   0  0  0  0  0  0  0  0  0  0  0  0
    1.4059    2.2542    0.1453 H   0  0  0  0  0  0  0  0  0  0  0  0
  1  2  1  0
  2  3  1  0
  3  4  1  0
  3  5  1  0
  5  6  2  0
  5  7  1  0
  7  8  1  0
  8  9  2  0
  9 10  1  0
 10 11  2  0
 11 12  1  0
 11 13  1  0
 13 14  2  0
 14  8  1  0
  1 15  1  0
  1 16  1  0
  1 17  1  0
  4 18  1  0
  4 19  1  0
  4 20  1  0
  7 21  1  0
  9 22  1  0
 10 23  1  0
 13 24  1  0
 14 25  1  0
M  END
>  <Energy>  (1) 
-9.73684957694574

>  <Real charge>  (1) 
0

>  <Mult>  (1) 
1

$$$$
