mol_596 36
     RDKit          3D

 17 17  0  0  0  0  0  0  0  0999 V2000
   -1.4023    1.6251    0.0506 C   0  0  0  0  0  0  0  0  0  0  0  0
   -0.2682    0.6417   -0.0398 C   0  0  0  0  0  0  0  0  0  0  0  0
    1.0192    1.1127   -0.3513 C   0  0  0  0  0  0  0  0  0  0  0  0
    2.1046    0.2397   -0.4076 C   0  0  0  0  0  0  0  0  0  0  0  0
    1.9183   -1.1108   -0.1371 C   0  0  0  0  0  0  0  0  0  0  0  0
    0.6429   -1.5884    0.1681 C   0  0  0  0  0  0  0  0  0  0  0  0
   -0.4689   -0.7353    0.1682 C   0  0  0  0  0  0  0  0  0  0  0  0
   -1.7099   -1.2421    0.5871 N   0  0  0  0  0  0  0  0  0  0  0  0
   -1.0544    2.6552   -0.0818 H   0  0  0  0  0  0  0  0  0  0  0  0
   -2.1422    1.4217   -0.7301 H   0  0  0  0  0  0  0  0  0  0  0  0
   -1.8813    1.5663    1.0332 H   0  0  0  0  0  0  0  0  0  0  0  0
    1.1859    2.1712   -0.5382 H   0  0  0  0  0  0  0  0  0  0  0  0
    3.0959    0.6178   -0.6420 H   0  0  0  0  0  0  0  0  0  0  0  0
    2.7644   -1.7921   -0.1503 H   0  0  0  0  0  0  0  0  0  0  0  0
    0.5213   -2.6419    0.4060 H   0  0  0  0  0  0  0  0  0  0  0  0
   -2.5039   -0.7057    0.2553 H   0  0  0  0  0  0  0  0  0  0  0  0
   -1.8214   -2.2351    0.4096 H   0  0  0  0  0  0  0  0  0  0  0  0
  1  2  1  0
  2  3  2  0
  3  4  1  0
  4  5  2  0
  5  6  1  0
  6  7  2  0
  7  8  1  0
  7  2  1  0
  1  9  1  0
  1 10  1  0
  1 11  1  0
  3 12  1  0
  4 13  1  0
  5 14  1  0
  6 15  1  0
  8 16  1  0
  8 17  1  0
M  END
>  <Energy>  (1) 
11.471025803105455

>  <Real charge>  (1) 
0

>  <Mult>  (1) 
1

$$$$
