mol_547 191
     RDKit          3D

 28 29  0  0  0  0  0  0  0  0999 V2000
   -3.5098   -0.0375   -0.2034 C   0  0  0  0  0  0  0  0  0  0  0  0
   -2.1218   -0.1954    0.3267 C   0  0  0  0  0  0  0  0  0  0  0  0
   -1.7936   -0.4072    1.6114 C   0  0  0  0  0  0  0  0  0  0  0  0
   -2.5330   -0.5078    2.7658 N   0  0  0  0  0  0  0  0  0  0  0  0
   -0.2871   -0.4828    1.6227 C   0  0  0  0  0  0  0  0  0  0  0  0
    0.3529   -0.5905    2.6596 O   0  0  0  0  0  0  0  0  0  0  0  0
    0.1314   -0.3089    0.2978 N   0  0  0  0  0  0  0  0  0  0  0  0
    1.4065    0.1706   -0.1022 C   0  0  0  0  0  0  0  0  0  0  0  0
    2.5441   -0.0815    0.6770 C   0  0  0  0  0  0  0  0  0  0  0  0
    3.8042    0.3836    0.2857 C   0  0  0  0  0  0  0  0  0  0  0  0
    3.9459    1.1136   -0.8906 C   0  0  0  0  0  0  0  0  0  0  0  0
    2.8278    1.3815   -1.6741 C   0  0  0  0  0  0  0  0  0  0  0  0
    1.5692    0.9141   -1.2816 C   0  0  0  0  0  0  0  0  0  0  0  0
   -1.0166   -0.1635   -0.5389 N   0  0  0  0  0  0  0  0  0  0  0  0
   -1.0230   -1.0866   -1.6880 C   0  0  0  0  0  0  0  0  0  0  0  0
   -4.2522    0.0258    0.5983 H   0  0  0  0  0  0  0  0  0  0  0  0
   -3.7813   -0.8860   -0.8392 H   0  0  0  0  0  0  0  0  0  0  0  0
   -3.5866    0.8795   -0.7967 H   0  0  0  0  0  0  0  0  0  0  0  0
   -3.3622    0.0769    2.7561 H   0  0  0  0  0  0  0  0  0  0  0  0
   -1.9409   -0.3341    3.5807 H   0  0  0  0  0  0  0  0  0  0  0  0
    2.4769   -0.6601    1.5950 H   0  0  0  0  0  0  0  0  0  0  0  0
    4.6725    0.1725    0.9049 H   0  0  0  0  0  0  0  0  0  0  0  0
    4.9246    1.4777   -1.1917 H   0  0  0  0  0  0  0  0  0  0  0  0
    2.9296    1.9626   -2.5868 H   0  0  0  0  0  0  0  0  0  0  0  0
    0.7120    1.1708   -1.8976 H   0  0  0  0  0  0  0  0  0  0  0  0
   -1.8331   -0.8249   -2.3769 H   0  0  0  0  0  0  0  0  0  0  0  0
   -1.1658   -2.1215   -1.3561 H   0  0  0  0  0  0  0  0  0  0  0  0
   -0.0906   -1.0408   -2.2578 H   0  0  0  0  0  0  0  0  0  0  0  0
  1  2  1  0
  2  3  2  0
  3  4  1  0
  3  5  1  0
  5  6  2  0
  5  7  1  0
  7  8  1  0
  8  9  2  0
  9 10  1  0
 10 11  2  0
 11 12  1  0
 12 13  2  0
  7 14  1  0
 14 15  1  0
 13  8  1  0
 14  2  1  0
  1 16  1  0
  1 17  1  0
  1 18  1  0
  4 19  1  0
  4 20  1  0
  9 21  1  0
 10 22  1  0
 11 23  1  0
 12 24  1  0
 13 25  1  0
 15 26  1  0
 15 27  1  0
 15 28  1  0
M  END
>  <Energy>  (1) 
106.45692806139674

>  <Real charge>  (1) 
0

>  <Mult>  (1) 
1

$$$$
mol_547 10
     RDKit          3D

 28 29  0  0  0  0  0  0  0  0999 V2000
   -3.2900   -1.1380    0.3868 C   0  0  0  0  0  0  0  0  0  0  0  0
   -2.1281   -0.2395    0.1139 C   0  0  0  0  0  0  0  0  0  0  0  0
   -2.1709    1.1016    0.0642 C   0  0  0  0  0  0  0  0  0  0  0  0
   -3.1881    2.0137    0.2048 N   0  0  0  0  0  0  0  0  0  0  0  0
   -0.7553    1.5259   -0.2405 C   0  0  0  0  0  0  0  0  0  0  0  0
   -0.4362    2.6996   -0.3678 O   0  0  0  0  0  0  0  0  0  0  0  0
    0.0086    0.3544   -0.2953 N   0  0  0  0  0  0  0  0  0  0  0  0
    1.4068    0.2701   -0.0672 C   0  0  0  0  0  0  0  0  0  0  0  0
    1.9884   -0.8885    0.4713 C   0  0  0  0  0  0  0  0  0  0  0  0
    3.3670   -0.9702    0.6932 C   0  0  0  0  0  0  0  0  0  0  0  0
    4.1878    0.1092    0.3822 C   0  0  0  0  0  0  0  0  0  0  0  0
    3.6293    1.2701   -0.1440 C   0  0  0  0  0  0  0  0  0  0  0  0
    2.2498    1.3499   -0.3636 C   0  0  0  0  0  0  0  0  0  0  0  0
   -0.8503   -0.7721   -0.1203 N   0  0  0  0  0  0  0  0  0  0  0  0
   -0.7159   -1.7871   -1.1796 C   0  0  0  0  0  0  0  0  0  0  0  0
   -3.5553   -1.7099   -0.5079 H   0  0  0  0  0  0  0  0  0  0  0  0
   -4.1770   -0.5785    0.7002 H   0  0  0  0  0  0  0  0  0  0  0  0
   -3.0454   -1.8420    1.1890 H   0  0  0  0  0  0  0  0  0  0  0  0
   -4.0871    1.6719   -0.1160 H   0  0  0  0  0  0  0  0  0  0  0  0
   -2.9275    2.9141   -0.2007 H   0  0  0  0  0  0  0  0  0  0  0  0
    1.3715   -1.7345    0.7610 H   0  0  0  0  0  0  0  0  0  0  0  0
    3.7945   -1.8739    1.1196 H   0  0  0  0  0  0  0  0  0  0  0  0
    5.2588    0.0500    0.5569 H   0  0  0  0  0  0  0  0  0  0  0  0
    4.2632    2.1199   -0.3847 H   0  0  0  0  0  0  0  0  0  0  0  0
    1.8546    2.2700   -0.7866 H   0  0  0  0  0  0  0  0  0  0  0  0
   -1.2771   -2.6885   -0.9112 H   0  0  0  0  0  0  0  0  0  0  0  0
   -1.0997   -1.4074   -2.1337 H   0  0  0  0  0  0  0  0  0  0  0  0
    0.3236   -2.0904   -1.3314 H   0  0  0  0  0  0  0  0  0  0  0  0
  1  2  1  0
  2  3  2  0
  3  4  1  0
  3  5  1  0
  5  6  2  0
  5  7  1  0
  7  8  1  0
  8  9  2  0
  9 10  1  0
 10 11  2  0
 11 12  1  0
 12 13  2  0
  7 14  1  0
 14 15  1  0
 13  8  1  0
 14  2  1  0
  1 16  1  0
  1 17  1  0
  1 18  1  0
  4 19  1  0
  4 20  1  0
  9 21  1  0
 10 22  1  0
 11 23  1  0
 12 24  1  0
 13 25  1  0
 15 26  1  0
 15 27  1  0
 15 28  1  0
M  END
>  <Energy>  (2) 
107.19335316881262

>  <Real charge>  (2) 
0

>  <Mult>  (2) 
1

$$$$
