mol_570 39
     RDKit          3D

 21 20  0  0  0  0  0  0  0  0999 V2000
   -3.4521    0.0378   -0.1823 C   0  0  0  0  0  0  0  0  0  0  0  0
   -2.1346    0.0943    0.5744 C   0  0  0  0  0  0  0  0  0  0  0  0
   -0.9444   -0.1426   -0.3549 C   0  0  0  0  0  0  0  0  0  0  0  0
    0.3794   -0.0848    0.4102 C   0  0  0  0  0  0  0  0  0  0  0  0
    1.5696   -0.3227   -0.5213 C   0  0  0  0  0  0  0  0  0  0  0  0
    2.8685   -0.2789    0.2313 C   0  0  0  0  0  0  0  0  0  0  0  0
    3.8410    0.6115   -0.0009 C   0  0  0  0  0  0  0  0  0  0  0  0
   -4.2894    0.2098    0.5012 H   0  0  0  0  0  0  0  0  0  0  0  0
   -3.4888    0.8033   -0.9639 H   0  0  0  0  0  0  0  0  0  0  0  0
   -3.5928   -0.9407   -0.6525 H   0  0  0  0  0  0  0  0  0  0  0  0
   -2.1434   -0.6613    1.3685 H   0  0  0  0  0  0  0  0  0  0  0  0
   -2.0400    1.0732    1.0588 H   0  0  0  0  0  0  0  0  0  0  0  0
   -0.9429    0.6133   -1.1497 H   0  0  0  0  0  0  0  0  0  0  0  0
   -1.0460   -1.1212   -0.8398 H   0  0  0  0  0  0  0  0  0  0  0  0
    0.3742   -0.8391    1.2073 H   0  0  0  0  0  0  0  0  0  0  0  0
    0.4791    0.8942    0.8960 H   0  0  0  0  0  0  0  0  0  0  0  0
    1.5634    0.4228   -1.3259 H   0  0  0  0  0  0  0  0  0  0  0  0
    1.4782   -1.3061   -0.9978 H   0  0  0  0  0  0  0  0  0  0  0  0
    3.0158   -1.0314    1.0037 H   0  0  0  0  0  0  0  0  0  0  0  0
    3.7435    1.3783   -0.7631 H   0  0  0  0  0  0  0  0  0  0  0  0
    4.7619    0.5903    0.5738 H   0  0  0  0  0  0  0  0  0  0  0  0
  1  2  1  0
  2  3  1  0
  3  4  1  0
  4  5  1  0
  5  6  1  0
  6  7  2  3
  1  8  1  0
  1  9  1  0
  1 10  1  0
  2 11  1  0
  2 12  1  0
  3 13  1  0
  3 14  1  0
  4 15  1  0
  4 16  1  0
  5 17  1  0
  5 18  1  0
  6 19  1  0
  7 20  1  0
  7 21  1  0
M  END
>  <Energy>  (1) 
4.833178138491502

>  <Real charge>  (1) 
0

>  <Mult>  (1) 
1

$$$$
mol_570 253
     RDKit          3D

 21 20  0  0  0  0  0  0  0  0999 V2000
   -2.9120    1.0486   -0.1985 C   0  0  0  0  0  0  0  0  0  0  0  0
   -2.0379   -0.1723   -0.4370 C   0  0  0  0  0  0  0  0  0  0  0  0
   -0.6248    0.0350    0.1094 C   0  0  0  0  0  0  0  0  0  0  0  0
    0.2503   -1.1983   -0.1344 C   0  0  0  0  0  0  0  0  0  0  0  0
    1.6546   -1.0656    0.4631 C   0  0  0  0  0  0  0  0  0  0  0  0
    2.4835   -0.0103   -0.2121 C   0  0  0  0  0  0  0  0  0  0  0  0
    2.9982    1.0550    0.4147 C   0  0  0  0  0  0  0  0  0  0  0  0
   -3.9173    0.8785   -0.5965 H   0  0  0  0  0  0  0  0  0  0  0  0
   -3.0019    1.2638    0.8710 H   0  0  0  0  0  0  0  0  0  0  0  0
   -2.4958    1.9319   -0.6933 H   0  0  0  0  0  0  0  0  0  0  0  0
   -1.9944   -0.3790   -1.5127 H   0  0  0  0  0  0  0  0  0  0  0  0
   -2.4990   -1.0435    0.0427 H   0  0  0  0  0  0  0  0  0  0  0  0
   -0.6746    0.2425    1.1853 H   0  0  0  0  0  0  0  0  0  0  0  0
   -0.1784    0.9140   -0.3699 H   0  0  0  0  0  0  0  0  0  0  0  0
    0.3207   -1.3945   -1.2118 H   0  0  0  0  0  0  0  0  0  0  0  0
   -0.2329   -2.0750    0.3148 H   0  0  0  0  0  0  0  0  0  0  0  0
    1.5785   -0.8747    1.5405 H   0  0  0  0  0  0  0  0  0  0  0  0
    2.1750   -2.0246    0.3520 H   0  0  0  0  0  0  0  0  0  0  0  0
    2.6763   -0.1413   -1.2751 H   0  0  0  0  0  0  0  0  0  0  0  0
    3.5947    1.7830   -0.1265 H   0  0  0  0  0  0  0  0  0  0  0  0
    2.8373    1.2269    1.4744 H   0  0  0  0  0  0  0  0  0  0  0  0
  1  2  1  0
  2  3  1  0
  3  4  1  0
  4  5  1  0
  5  6  1  0
  6  7  2  3
  1  8  1  0
  1  9  1  0
  1 10  1  0
  2 11  1  0
  2 12  1  0
  3 13  1  0
  3 14  1  0
  4 15  1  0
  4 16  1  0
  5 17  1  0
  5 18  1  0
  6 19  1  0
  7 20  1  0
  7 21  1  0
M  END
>  <Energy>  (2) 
5.046447338150944

>  <Real charge>  (2) 
0

>  <Mult>  (2) 
1

$$$$
mol_570 182
     RDKit          3D

 21 20  0  0  0  0  0  0  0  0999 V2000
   -3.3543    0.5282   -0.1578 C   0  0  0  0  0  0  0  0  0  0  0  0
   -1.9207    0.8246    0.2527 C   0  0  0  0  0  0  0  0  0  0  0  0
   -0.9535   -0.2261   -0.2921 C   0  0  0  0  0  0  0  0  0  0  0  0
    0.4887    0.0760    0.1235 C   0  0  0  0  0  0  0  0  0  0  0  0
    1.4561   -0.9790   -0.4241 C   0  0  0  0  0  0  0  0  0  0  0  0
    2.9119   -0.7969   -0.0854 C   0  0  0  0  0  0  0  0  0  0  0  0
    3.4645    0.1829    0.6416 C   0  0  0  0  0  0  0  0  0  0  0  0
   -4.0287    1.2917    0.2424 H   0  0  0  0  0  0  0  0  0  0  0  0
   -3.6784   -0.4453    0.2240 H   0  0  0  0  0  0  0  0  0  0  0  0
   -3.4569    0.5217   -1.2476 H   0  0  0  0  0  0  0  0  0  0  0  0
   -1.6390    1.8175   -0.1167 H   0  0  0  0  0  0  0  0  0  0  0  0
   -1.8592    0.8559    1.3468 H   0  0  0  0  0  0  0  0  0  0  0  0
   -1.2423   -1.2177    0.0772 H   0  0  0  0  0  0  0  0  0  0  0  0
   -1.0221   -0.2561   -1.3864 H   0  0  0  0  0  0  0  0  0  0  0  0
    0.5505    0.1054    1.2184 H   0  0  0  0  0  0  0  0  0  0  0  0
    0.7712    1.0688   -0.2480 H   0  0  0  0  0  0  0  0  0  0  0  0
    1.3700   -1.0083   -1.5175 H   0  0  0  0  0  0  0  0  0  0  0  0
    1.1504   -1.9672   -0.0582 H   0  0  0  0  0  0  0  0  0  0  0  0
    3.5738   -1.5627   -0.4889 H   0  0  0  0  0  0  0  0  0  0  0  0
    4.5365    0.2016    0.8152 H   0  0  0  0  0  0  0  0  0  0  0  0
    2.8817    0.9852    1.0810 H   0  0  0  0  0  0  0  0  0  0  0  0
  1  2  1  0
  2  3  1  0
  3  4  1  0
  4  5  1  0
  5  6  1  0
  6  7  2  3
  1  8  1  0
  1  9  1  0
  1 10  1  0
  2 11  1  0
  2 12  1  0
  3 13  1  0
  3 14  1  0
  4 15  1  0
  4 16  1  0
  5 17  1  0
  5 18  1  0
  6 19  1  0
  7 20  1  0
  7 21  1  0
M  END
>  <Energy>  (3) 
5.15327440521637

>  <Real charge>  (3) 
0

>  <Mult>  (3) 
1

$$$$
mol_570 184
     RDKit          3D

 21 20  0  0  0  0  0  0  0  0999 V2000
   -3.1022    0.2295    0.7828 C   0  0  0  0  0  0  0  0  0  0  0  0
   -2.0522    0.5936   -0.2548 C   0  0  0  0  0  0  0  0  0  0  0  0
   -0.7668   -0.2114   -0.0579 C   0  0  0  0  0  0  0  0  0  0  0  0
    0.2864    0.1617   -1.1056 C   0  0  0  0  0  0  0  0  0  0  0  0
    1.5629   -0.6809   -1.0138 C   0  0  0  0  0  0  0  0  0  0  0  0
    2.3511   -0.4352    0.2415 C   0  0  0  0  0  0  0  0  0  0  0  0
    3.5626    0.1347    0.2663 C   0  0  0  0  0  0  0  0  0  0  0  0
   -2.7402    0.4332    1.7956 H   0  0  0  0  0  0  0  0  0  0  0  0
   -3.3658   -0.8311    0.7187 H   0  0  0  0  0  0  0  0  0  0  0  0
   -4.0123    0.8160    0.6230 H   0  0  0  0  0  0  0  0  0  0  0  0
   -1.8343    1.6657   -0.1852 H   0  0  0  0  0  0  0  0  0  0  0  0
   -2.4580    0.4090   -1.2563 H   0  0  0  0  0  0  0  0  0  0  0  0
   -0.3784   -0.0261    0.9500 H   0  0  0  0  0  0  0  0  0  0  0  0
   -0.9910   -1.2827   -0.1279 H   0  0  0  0  0  0  0  0  0  0  0  0
   -0.1429    0.0224   -2.1058 H   0  0  0  0  0  0  0  0  0  0  0  0
    0.5366    1.2262   -1.0154 H   0  0  0  0  0  0  0  0  0  0  0  0
    1.3105   -1.7466   -1.0680 H   0  0  0  0  0  0  0  0  0  0  0  0
    2.1827   -0.4654   -1.8933 H   0  0  0  0  0  0  0  0  0  0  0  0
    1.9069   -0.7616    1.1794 H   0  0  0  0  0  0  0  0  0  0  0  0
    4.0548    0.4708   -0.6410 H   0  0  0  0  0  0  0  0  0  0  0  0
    4.0894    0.2783    1.2048 H   0  0  0  0  0  0  0  0  0  0  0  0
  1  2  1  0
  2  3  1  0
  3  4  1  0
  4  5  1  0
  5  6  1  0
  6  7  2  3
  1  8  1  0
  1  9  1  0
  1 10  1  0
  2 11  1  0
  2 12  1  0
  3 13  1  0
  3 14  1  0
  4 15  1  0
  4 16  1  0
  5 17  1  0
  5 18  1  0
  6 19  1  0
  7 20  1  0
  7 21  1  0
M  END
>  <Energy>  (4) 
5.383633575857195

>  <Real charge>  (4) 
0

>  <Mult>  (4) 
1

$$$$
mol_570 11
     RDKit          3D

 21 20  0  0  0  0  0  0  0  0999 V2000
   -2.7859    0.7600   -0.3100 C   0  0  0  0  0  0  0  0  0  0  0  0
   -2.3283   -0.6421    0.0612 C   0  0  0  0  0  0  0  0  0  0  0  0
   -0.8972   -0.9551   -0.3807 C   0  0  0  0  0  0  0  0  0  0  0  0
    0.1579   -0.1080    0.3352 C   0  0  0  0  0  0  0  0  0  0  0  0
    1.5729   -0.5349   -0.0638 C   0  0  0  0  0  0  0  0  0  0  0  0
    2.6110    0.2877    0.6441 C   0  0  0  0  0  0  0  0  0  0  0  0
    3.4953    1.0773    0.0220 C   0  0  0  0  0  0  0  0  0  0  0  0
   -3.8431    0.8891   -0.0568 H   0  0  0  0  0  0  0  0  0  0  0  0
   -2.6705    0.9401   -1.3835 H   0  0  0  0  0  0  0  0  0  0  0  0
   -2.2208    1.5235    0.2324 H   0  0  0  0  0  0  0  0  0  0  0  0
   -3.0034   -1.3649   -0.4125 H   0  0  0  0  0  0  0  0  0  0  0  0
   -2.4240   -0.7823    1.1441 H   0  0  0  0  0  0  0  0  0  0  0  0
   -0.7015   -2.0158   -0.1800 H   0  0  0  0  0  0  0  0  0  0  0  0
   -0.8090   -0.8174   -1.4653 H   0  0  0  0  0  0  0  0  0  0  0  0
    0.0175    0.9513    0.0896 H   0  0  0  0  0  0  0  0  0  0  0  0
    0.0322   -0.2073    1.4207 H   0  0  0  0  0  0  0  0  0  0  0  0
    1.7307   -1.5887    0.1952 H   0  0  0  0  0  0  0  0  0  0  0  0
    1.6897   -0.4533   -1.1514 H   0  0  0  0  0  0  0  0  0  0  0  0
    2.6383    0.2183    1.7298 H   0  0  0  0  0  0  0  0  0  0  0  0
    4.2268    1.6456    0.5884 H   0  0  0  0  0  0  0  0  0  0  0  0
    3.5113    1.1768   -1.0589 H   0  0  0  0  0  0  0  0  0  0  0  0
  1  2  1  0
  2  3  1  0
  3  4  1  0
  4  5  1  0
  5  6  1  0
  6  7  2  3
  1  8  1  0
  1  9  1  0
  1 10  1  0
  2 11  1  0
  2 12  1  0
  3 13  1  0
  3 14  1  0
  4 15  1  0
  4 16  1  0
  5 17  1  0
  5 18  1  0
  6 19  1  0
  7 20  1  0
  7 21  1  0
M  END
>  <Energy>  (5) 
5.657777799381708

>  <Real charge>  (5) 
0

>  <Mult>  (5) 
1

$$$$
mol_570 122
     RDKit          3D

 21 20  0  0  0  0  0  0  0  0999 V2000
   -2.3152    1.4474   -0.6840 C   0  0  0  0  0  0  0  0  0  0  0  0
   -1.1725    0.4708   -0.9171 C   0  0  0  0  0  0  0  0  0  0  0  0
   -1.0117   -0.4899    0.2616 C   0  0  0  0  0  0  0  0  0  0  0  0
    0.0555   -1.5660    0.0289 C   0  0  0  0  0  0  0  0  0  0  0  0
    1.4836   -1.0452   -0.1645 C   0  0  0  0  0  0  0  0  0  0  0  0
    2.0094   -0.3090    1.0343 C   0  0  0  0  0  0  0  0  0  0  0  0
    2.4104    0.9683    1.0147 C   0  0  0  0  0  0  0  0  0  0  0  0
   -2.4125    2.1272   -1.5363 H   0  0  0  0  0  0  0  0  0  0  0  0
   -3.2656    0.9181   -0.5619 H   0  0  0  0  0  0  0  0  0  0  0  0
   -2.1391    2.0498    0.2129 H   0  0  0  0  0  0  0  0  0  0  0  0
   -1.3654   -0.0952   -1.8357 H   0  0  0  0  0  0  0  0  0  0  0  0
   -0.2515    1.0422   -1.0729 H   0  0  0  0  0  0  0  0  0  0  0  0
   -1.9684   -0.9963    0.4419 H   0  0  0  0  0  0  0  0  0  0  0  0
   -0.7857    0.0751    1.1736 H   0  0  0  0  0  0  0  0  0  0  0  0
   -0.2219   -2.1573   -0.8528 H   0  0  0  0  0  0  0  0  0  0  0  0
    0.0385   -2.2585    0.8805 H   0  0  0  0  0  0  0  0  0  0  0  0
    2.1433   -1.9025   -0.3475 H   0  0  0  0  0  0  0  0  0  0  0  0
    1.5396   -0.4229   -1.0650 H   0  0  0  0  0  0  0  0  0  0  0  0
    2.0709   -0.8670    1.9666 H   0  0  0  0  0  0  0  0  0  0  0  0
    2.3720    1.5649    0.1085 H   0  0  0  0  0  0  0  0  0  0  0  0
    2.7864    1.4462    1.9141 H   0  0  0  0  0  0  0  0  0  0  0  0
  1  2  1  0
  2  3  1  0
  3  4  1  0
  4  5  1  0
  5  6  1  0
  6  7  2  3
  1  8  1  0
  1  9  1  0
  1 10  1  0
  2 11  1  0
  2 12  1  0
  3 13  1  0
  3 14  1  0
  4 15  1  0
  4 16  1  0
  5 17  1  0
  5 18  1  0
  6 19  1  0
  7 20  1  0
  7 21  1  0
M  END
>  <Energy>  (6) 
5.6594891594073005

>  <Real charge>  (6) 
0

>  <Mult>  (6) 
1

$$$$
mol_570 49
     RDKit          3D

 21 20  0  0  0  0  0  0  0  0999 V2000
   -2.8710    0.4803    0.6673 C   0  0  0  0  0  0  0  0  0  0  0  0
   -2.2785    0.1246   -0.6874 C   0  0  0  0  0  0  0  0  0  0  0  0
   -0.9763   -0.6737   -0.5946 C   0  0  0  0  0  0  0  0  0  0  0  0
    0.1779    0.1177    0.0258 C   0  0  0  0  0  0  0  0  0  0  0  0
    1.4790   -0.6884   -0.0032 C   0  0  0  0  0  0  0  0  0  0  0  0
    2.6102    0.0786    0.6194 C   0  0  0  0  0  0  0  0  0  0  0  0
    3.7174    0.4480   -0.0365 C   0  0  0  0  0  0  0  0  0  0  0  0
   -3.8455    0.9617    0.5358 H   0  0  0  0  0  0  0  0  0  0  0  0
   -3.0156   -0.4147    1.2806 H   0  0  0  0  0  0  0  0  0  0  0  0
   -2.2300    1.1767    1.2156 H   0  0  0  0  0  0  0  0  0  0  0  0
   -2.1141    1.0412   -1.2658 H   0  0  0  0  0  0  0  0  0  0  0  0
   -3.0123   -0.4724   -1.2420 H   0  0  0  0  0  0  0  0  0  0  0  0
   -0.6935   -0.9853   -1.6078 H   0  0  0  0  0  0  0  0  0  0  0  0
   -1.1478   -1.5912   -0.0184 H   0  0  0  0  0  0  0  0  0  0  0  0
   -0.0634    0.3799    1.0627 H   0  0  0  0  0  0  0  0  0  0  0  0
    0.3134    1.0587   -0.5221 H   0  0  0  0  0  0  0  0  0  0  0  0
    1.3482   -1.6251    0.5518 H   0  0  0  0  0  0  0  0  0  0  0  0
    1.7210   -0.9622   -1.0375 H   0  0  0  0  0  0  0  0  0  0  0  0
    2.5116    0.3334    1.6728 H   0  0  0  0  0  0  0  0  0  0  0  0
    4.5049    0.9981    0.4695 H   0  0  0  0  0  0  0  0  0  0  0  0
    3.8646    0.2138   -1.0862 H   0  0  0  0  0  0  0  0  0  0  0  0
  1  2  1  0
  2  3  1  0
  3  4  1  0
  4  5  1  0
  5  6  1  0
  6  7  2  3
  1  8  1  0
  1  9  1  0
  1 10  1  0
  2 11  1  0
  2 12  1  0
  3 13  1  0
  3 14  1  0
  4 15  1  0
  4 16  1  0
  5 17  1  0
  5 18  1  0
  6 19  1  0
  7 20  1  0
  7 21  1  0
M  END
>  <Energy>  (7) 
5.664716738736233

>  <Real charge>  (7) 
0

>  <Mult>  (7) 
1

$$$$
mol_570 203
     RDKit          3D

 21 20  0  0  0  0  0  0  0  0999 V2000
   -3.2872    0.2654    0.0329 C   0  0  0  0  0  0  0  0  0  0  0  0
   -1.8580   -0.0374   -0.3910 C   0  0  0  0  0  0  0  0  0  0  0  0
   -0.9709   -0.3403    0.8171 C   0  0  0  0  0  0  0  0  0  0  0  0
    0.4518   -0.7619    0.4372 C   0  0  0  0  0  0  0  0  0  0  0  0
    1.2554    0.3528   -0.2370 C   0  0  0  0  0  0  0  0  0  0  0  0
    2.6709   -0.0797   -0.4955 C   0  0  0  0  0  0  0  0  0  0  0  0
    3.7462    0.5120    0.0396 C   0  0  0  0  0  0  0  0  0  0  0  0
   -3.3232    1.1343    0.6978 H   0  0  0  0  0  0  0  0  0  0  0  0
   -3.7305   -0.5875    0.5568 H   0  0  0  0  0  0  0  0  0  0  0  0
   -3.9046    0.4828   -0.8444 H   0  0  0  0  0  0  0  0  0  0  0  0
   -1.4678    0.8235   -0.9442 H   0  0  0  0  0  0  0  0  0  0  0  0
   -1.8602   -0.8929   -1.0761 H   0  0  0  0  0  0  0  0  0  0  0  0
   -0.9313    0.5350    1.4770 H   0  0  0  0  0  0  0  0  0  0  0  0
   -1.4238   -1.1529    1.3989 H   0  0  0  0  0  0  0  0  0  0  0  0
    0.4098   -1.6419   -0.2171 H   0  0  0  0  0  0  0  0  0  0  0  0
    0.9692   -1.0774    1.3526 H   0  0  0  0  0  0  0  0  0  0  0  0
    0.8038    0.6196   -1.1988 H   0  0  0  0  0  0  0  0  0  0  0  0
    1.2345    1.2535    0.3884 H   0  0  0  0  0  0  0  0  0  0  0  0
    2.8130   -0.9220   -1.1698 H   0  0  0  0  0  0  0  0  0  0  0  0
    4.7464    0.1569   -0.1888 H   0  0  0  0  0  0  0  0  0  0  0  0
    3.6565    1.3580    0.7139 H   0  0  0  0  0  0  0  0  0  0  0  0
  1  2  1  0
  2  3  1  0
  3  4  1  0
  4  5  1  0
  5  6  1  0
  6  7  2  3
  1  8  1  0
  1  9  1  0
  1 10  1  0
  2 11  1  0
  2 12  1  0
  3 13  1  0
  3 14  1  0
  4 15  1  0
  4 16  1  0
  5 17  1  0
  5 18  1  0
  6 19  1  0
  7 20  1  0
  7 21  1  0
M  END
>  <Energy>  (8) 
5.692095656658127

>  <Real charge>  (8) 
0

>  <Mult>  (8) 
1

$$$$
mol_570 242
     RDKit          3D

 21 20  0  0  0  0  0  0  0  0999 V2000
   -3.0686   -0.6221   -0.5611 C   0  0  0  0  0  0  0  0  0  0  0  0
   -1.5557   -0.4905   -0.4723 C   0  0  0  0  0  0  0  0  0  0  0  0
   -1.1504    0.7369    0.3447 C   0  0  0  0  0  0  0  0  0  0  0  0
    0.3617    0.9810    0.3686 C   0  0  0  0  0  0  0  0  0  0  0  0
    1.1416   -0.1114    1.1043 C   0  0  0  0  0  0  0  0  0  0  0  0
    2.5994    0.2384    1.2071 C   0  0  0  0  0  0  0  0  0  0  0  0
    3.5855   -0.4827    0.6590 C   0  0  0  0  0  0  0  0  0  0  0  0
   -3.5123   -0.7242    0.4344 H   0  0  0  0  0  0  0  0  0  0  0  0
   -3.3382   -1.5073   -1.1458 H   0  0  0  0  0  0  0  0  0  0  0  0
   -3.5112    0.2532   -1.0471 H   0  0  0  0  0  0  0  0  0  0  0  0
   -1.1520   -1.4015   -0.0181 H   0  0  0  0  0  0  0  0  0  0  0  0
   -1.1415   -0.4183   -1.4846 H   0  0  0  0  0  0  0  0  0  0  0  0
   -1.5235    0.6390    1.3715 H   0  0  0  0  0  0  0  0  0  0  0  0
   -1.6324    1.6254   -0.0822 H   0  0  0  0  0  0  0  0  0  0  0  0
    0.5417    1.9472    0.8578 H   0  0  0  0  0  0  0  0  0  0  0  0
    0.7334    1.0776   -0.6595 H   0  0  0  0  0  0  0  0  0  0  0  0
    0.7430   -0.2345    2.1182 H   0  0  0  0  0  0  0  0  0  0  0  0
    1.0196   -1.0729    0.5933 H   0  0  0  0  0  0  0  0  0  0  0  0
    2.8526    1.1316    1.7750 H   0  0  0  0  0  0  0  0  0  0  0  0
    4.6224   -0.1814    0.7721 H   0  0  0  0  0  0  0  0  0  0  0  0
    3.3849   -1.3836    0.0875 H   0  0  0  0  0  0  0  0  0  0  0  0
  1  2  1  0
  2  3  1  0
  3  4  1  0
  4  5  1  0
  5  6  1  0
  6  7  2  3
  1  8  1  0
  1  9  1  0
  1 10  1  0
  2 11  1  0
  2 12  1  0
  3 13  1  0
  3 14  1  0
  4 15  1  0
  4 16  1  0
  5 17  1  0
  5 18  1  0
  6 19  1  0
  7 20  1  0
  7 21  1  0
M  END
>  <Energy>  (9) 
5.726199852000194

>  <Real charge>  (9) 
0

>  <Mult>  (9) 
1

$$$$
mol_570 167
     RDKit          3D

 21 20  0  0  0  0  0  0  0  0999 V2000
   -2.7746    0.2881   -0.3749 C   0  0  0  0  0  0  0  0  0  0  0  0
   -2.0009   -0.9035    0.1678 C   0  0  0  0  0  0  0  0  0  0  0  0
   -0.5229   -0.6034    0.4300 C   0  0  0  0  0  0  0  0  0  0  0  0
    0.2665   -0.2952   -0.8469 C   0  0  0  0  0  0  0  0  0  0  0  0
    1.7744   -0.1714   -0.6016 C   0  0  0  0  0  0  0  0  0  0  0  0
    2.1362    1.0164    0.2439 C   0  0  0  0  0  0  0  0  0  0  0  0
    2.7718    0.9353    1.4195 C   0  0  0  0  0  0  0  0  0  0  0  0
   -2.6740    1.1557    0.2848 H   0  0  0  0  0  0  0  0  0  0  0  0
   -3.8386    0.0418   -0.4507 H   0  0  0  0  0  0  0  0  0  0  0  0
   -2.4287    0.5700   -1.3736 H   0  0  0  0  0  0  0  0  0  0  0  0
   -2.4634   -1.2188    1.1107 H   0  0  0  0  0  0  0  0  0  0  0  0
   -2.0935   -1.7460   -0.5273 H   0  0  0  0  0  0  0  0  0  0  0  0
   -0.0791   -1.4771    0.9233 H   0  0  0  0  0  0  0  0  0  0  0  0
   -0.4444    0.2326    1.1348 H   0  0  0  0  0  0  0  0  0  0  0  0
    0.1015   -1.0997   -1.5742 H   0  0  0  0  0  0  0  0  0  0  0  0
   -0.1039    0.6290   -1.3060 H   0  0  0  0  0  0  0  0  0  0  0  0
    2.1515   -1.0998   -0.1556 H   0  0  0  0  0  0  0  0  0  0  0  0
    2.2794   -0.0629   -1.5692 H   0  0  0  0  0  0  0  0  0  0  0  0
    1.8663    1.9968   -0.1436 H   0  0  0  0  0  0  0  0  0  0  0  0
    3.0653   -0.0192    1.8453 H   0  0  0  0  0  0  0  0  0  0  0  0
    3.0112    1.8311    1.9842 H   0  0  0  0  0  0  0  0  0  0  0  0
  1  2  1  0
  2  3  1  0
  3  4  1  0
  4  5  1  0
  5  6  1  0
  6  7  2  3
  1  8  1  0
  1  9  1  0
  1 10  1  0
  2 11  1  0
  2 12  1  0
  3 13  1  0
  3 14  1  0
  4 15  1  0
  4 16  1  0
  5 17  1  0
  5 18  1  0
  6 19  1  0
  7 20  1  0
  7 21  1  0
M  END
>  <Energy>  (10) 
5.830803079838974

>  <Real charge>  (10) 
0

>  <Mult>  (10) 
1

$$$$
