mol_416 20
     RDKit          3D

 13 13  0  0  0  0  0  0  0  0999 V2000
    0.7157    0.7527   -0.2128 C   0  0  0  0  0  0  0  0  0  0  0  0
   -0.6204    0.7109    0.4834 C   0  0  0  0  0  0  0  0  0  0  0  0
   -1.2015   -0.5866   -0.0351 C   0  0  0  0  0  0  0  0  0  0  0  0
   -0.0956   -1.4694   -0.2717 O   0  0  0  0  0  0  0  0  0  0  0  0
    1.1174   -0.7062   -0.2039 C   0  0  0  0  0  0  0  0  0  0  0  0
    0.5850    1.0985   -1.2451 H   0  0  0  0  0  0  0  0  0  0  0  0
    1.4476    1.4007    0.2761 H   0  0  0  0  0  0  0  0  0  0  0  0
   -1.2539    1.5768    0.2744 H   0  0  0  0  0  0  0  0  0  0  0  0
   -0.4714    0.6472    1.5678 H   0  0  0  0  0  0  0  0  0  0  0  0
   -1.8978   -1.0478    0.6709 H   0  0  0  0  0  0  0  0  0  0  0  0
   -1.7185   -0.4362   -0.9888 H   0  0  0  0  0  0  0  0  0  0  0  0
    1.7665   -0.9692   -1.0438 H   0  0  0  0  0  0  0  0  0  0  0  0
    1.6269   -0.9714    0.7286 H   0  0  0  0  0  0  0  0  0  0  0  0
  1  2  1  0
  2  3  1  0
  3  4  1  0
  4  5  1  0
  5  1  1  0
  1  6  1  0
  1  7  1  0
  2  8  1  0
  2  9  1  0
  3 10  1  0
  3 11  1  0
  5 12  1  0
  5 13  1  0
M  END
>  <Energy>  (1) 
4.872987078042361

>  <Real charge>  (1) 
0

>  <Mult>  (1) 
1

$$$$
