mol_532 2
     RDKit          3D

 23 25  0  0  0  0  0  0  0  0999 V2000
   -0.1905   -1.7613    0.4124 C   0  0  0  0  0  0  0  0  0  0  0  0
    1.0805   -0.9577    0.2258 C   0  0  0  0  0  0  0  0  0  0  0  0
    2.3898   -1.4083    0.2537 C   0  0  0  0  0  0  0  0  0  0  0  0
    3.4080   -0.4740    0.0541 C   0  0  0  0  0  0  0  0  0  0  0  0
    3.1077    0.8810   -0.1680 C   0  0  0  0  0  0  0  0  0  0  0  0
    1.7824    1.3277   -0.1946 C   0  0  0  0  0  0  0  0  0  0  0  0
    0.7716    0.4022    0.0032 C   0  0  0  0  0  0  0  0  0  0  0  0
   -0.6672    0.5626    0.0302 C   0  0  0  0  0  0  0  0  0  0  0  0
   -1.4561    1.6886   -0.1338 C   0  0  0  0  0  0  0  0  0  0  0  0
   -2.8453    1.5446   -0.0563 C   0  0  0  0  0  0  0  0  0  0  0  0
   -3.4281    0.2880    0.1823 C   0  0  0  0  0  0  0  0  0  0  0  0
   -2.6339   -0.8483    0.3479 C   0  0  0  0  0  0  0  0  0  0  0  0
   -1.2594   -0.6969    0.2697 C   0  0  0  0  0  0  0  0  0  0  0  0
   -0.2217   -2.2094    1.4098 H   0  0  0  0  0  0  0  0  0  0  0  0
   -0.2894   -2.5165   -0.3727 H   0  0  0  0  0  0  0  0  0  0  0  0
    2.6219   -2.4540    0.4250 H   0  0  0  0  0  0  0  0  0  0  0  0
    4.4465   -0.7967    0.0702 H   0  0  0  0  0  0  0  0  0  0  0  0
    3.9172    1.5909   -0.3210 H   0  0  0  0  0  0  0  0  0  0  0  0
    1.5612    2.3753   -0.3667 H   0  0  0  0  0  0  0  0  0  0  0  0
   -1.0163    2.6626   -0.3183 H   0  0  0  0  0  0  0  0  0  0  0  0
   -3.4838    2.4159   -0.1821 H   0  0  0  0  0  0  0  0  0  0  0  0
   -4.5108    0.2018    0.2382 H   0  0  0  0  0  0  0  0  0  0  0  0
   -3.0840   -1.8180    0.5320 H   0  0  0  0  0  0  0  0  0  0  0  0
  1  2  1  0
  2  3  2  0
  3  4  1  0
  4  5  2  0
  5  6  1  0
  6  7  2  0
  7  8  1  0
  8  9  2  0
  9 10  1  0
 10 11  2  0
 11 12  1  0
 12 13  2  0
 13  1  1  0
  7  2  1  0
 13  8  1  0
  1 14  1  0
  1 15  1  0
  3 16  1  0
  4 17  1  0
  5 18  1  0
  6 19  1  0
  9 20  1  0
 10 21  1  0
 11 22  1  0
 12 23  1  0
M  END
>  <Energy>  (1) 
52.35276192997882

>  <Real charge>  (1) 
0

>  <Mult>  (1) 
1

$$$$
