mol_54 93
     RDKit          3D

 27 27  0  0  0  0  0  0  0  0999 V2000
   -2.1945    1.6761    0.9678 C   0  0  0  0  0  0  0  0  0  0  0  0
   -2.4374    0.1846    0.7764 C   0  0  0  0  0  0  0  0  0  0  0  0
   -1.6800   -0.3912   -0.4378 C   0  0  0  0  0  0  0  0  0  0  0  0
   -2.0535   -1.8592   -0.6758 C   0  0  0  0  0  0  0  0  0  0  0  0
   -0.2170   -0.2060   -0.3598 N   0  0  0  0  0  0  0  0  0  0  0  0
    0.4906   -0.7976    0.6706 C   0  0  0  0  0  0  0  0  0  0  0  0
    0.0047   -1.4891    1.5624 O   0  0  0  0  0  0  0  0  0  0  0  0
    1.8385   -0.5837    0.6783 N   0  0  0  0  0  0  0  0  0  0  0  0
    2.5379    0.1545   -0.2406 C   0  0  0  0  0  0  0  0  0  0  0  0
    4.0183    0.2264    0.0196 C   0  0  0  0  0  0  0  0  0  0  0  0
    1.8857    0.7340   -1.2620 C   0  0  0  0  0  0  0  0  0  0  0  0
    2.7029    1.7684   -2.5921 Br  0  0  0  0  0  0  0  0  0  0  0  0
    0.3981    0.5468   -1.3586 C   0  0  0  0  0  0  0  0  0  0  0  0
   -0.2243    1.0517   -2.2944 O   0  0  0  0  0  0  0  0  0  0  0  0
   -2.8064    2.0535    1.7934 H   0  0  0  0  0  0  0  0  0  0  0  0
   -1.1471    1.8835    1.2071 H   0  0  0  0  0  0  0  0  0  0  0  0
   -2.4608    2.2360    0.0658 H   0  0  0  0  0  0  0  0  0  0  0  0
   -2.1725   -0.3410    1.6996 H   0  0  0  0  0  0  0  0  0  0  0  0
   -3.5136    0.0271    0.6313 H   0  0  0  0  0  0  0  0  0  0  0  0
   -2.0552    0.1512   -1.3141 H   0  0  0  0  0  0  0  0  0  0  0  0
   -3.1261   -1.9543   -0.8767 H   0  0  0  0  0  0  0  0  0  0  0  0
   -1.8237   -2.4925    0.1860 H   0  0  0  0  0  0  0  0  0  0  0  0
   -1.5124   -2.2603   -1.5397 H   0  0  0  0  0  0  0  0  0  0  0  0
    2.3231   -1.0294    1.4505 H   0  0  0  0  0  0  0  0  0  0  0  0
    4.5701    0.8156   -0.7161 H   0  0  0  0  0  0  0  0  0  0  0  0
    4.2055    0.6758    1.0013 H   0  0  0  0  0  0  0  0  0  0  0  0
    4.4493   -0.7809    0.0177 H   0  0  0  0  0  0  0  0  0  0  0  0
  1  2  1  0
  2  3  1  0
  3  4  1  0
  3  5  1  0
  5  6  1  0
  6  7  2  0
  6  8  1  0
  8  9  1  0
  9 10  1  0
  9 11  2  0
 11 12  1  0
 11 13  1  0
 13 14  2  0
 13  5  1  0
  1 15  1  0
  1 16  1  0
  1 17  1  0
  2 18  1  0
  2 19  1  0
  3 20  1  0
  4 21  1  0
  4 22  1  0
  4 23  1  0
  8 24  1  0
 10 25  1  0
 10 26  1  0
 10 27  1  0
M  END
>  <Energy>  (1) 
-48.54852141251435

>  <Real charge>  (1) 
0

>  <Mult>  (1) 
1

$$$$
mol_54 129
     RDKit          3D

 27 27  0  0  0  0  0  0  0  0999 V2000
   -2.3213    0.9026   -1.5585 C   0  0  0  0  0  0  0  0  0  0  0  0
   -2.4830   -0.3154   -0.6584 C   0  0  0  0  0  0  0  0  0  0  0  0
   -1.6356   -0.2229    0.6272 C   0  0  0  0  0  0  0  0  0  0  0  0
   -1.9203   -1.4024    1.5645 C   0  0  0  0  0  0  0  0  0  0  0  0
   -0.1899   -0.0636    0.3729 N   0  0  0  0  0  0  0  0  0  0  0  0
    0.4269    1.0672    0.8793 C   0  0  0  0  0  0  0  0  0  0  0  0
   -0.1348    1.9517    1.5222 O   0  0  0  0  0  0  0  0  0  0  0  0
    1.7635    1.1884    0.6332 N   0  0  0  0  0  0  0  0  0  0  0  0
    2.5339    0.2916   -0.0600 C   0  0  0  0  0  0  0  0  0  0  0  0
    3.9797    0.6880   -0.1912 C   0  0  0  0  0  0  0  0  0  0  0  0
    1.9731   -0.8267   -0.5494 C   0  0  0  0  0  0  0  0  0  0  0  0
    2.8959   -2.1412   -1.5128 Br  0  0  0  0  0  0  0  0  0  0  0  0
    0.5069   -1.0560   -0.3118 C   0  0  0  0  0  0  0  0  0  0  0  0
   -0.0227   -2.0907   -0.7179 O   0  0  0  0  0  0  0  0  0  0  0  0
   -2.5642    1.8239   -1.0197 H   0  0  0  0  0  0  0  0  0  0  0  0
   -2.9941    0.8262   -2.4186 H   0  0  0  0  0  0  0  0  0  0  0  0
   -1.2993    0.9848   -1.9408 H   0  0  0  0  0  0  0  0  0  0  0  0
   -2.2454   -1.2168   -1.2323 H   0  0  0  0  0  0  0  0  0  0  0  0
   -3.5412   -0.3996   -0.3804 H   0  0  0  0  0  0  0  0  0  0  0  0
   -1.9929    0.6669    1.1605 H   0  0  0  0  0  0  0  0  0  0  0  0
   -2.9754   -1.4127    1.8583 H   0  0  0  0  0  0  0  0  0  0  0  0
   -1.3177   -1.3257    2.4760 H   0  0  0  0  0  0  0  0  0  0  0  0
   -1.6999   -2.3673    1.0988 H   0  0  0  0  0  0  0  0  0  0  0  0
    2.1795    2.0324    1.0132 H   0  0  0  0  0  0  0  0  0  0  0  0
    4.5885   -0.0307   -0.7440 H   0  0  0  0  0  0  0  0  0  0  0  0
    4.4302    0.7989    0.8014 H   0  0  0  0  0  0  0  0  0  0  0  0
    4.0598    1.6489   -0.7116 H   0  0  0  0  0  0  0  0  0  0  0  0
  1  2  1  0
  2  3  1  0
  3  4  1  0
  3  5  1  0
  5  6  1  0
  6  7  2  0
  6  8  1  0
  8  9  1  0
  9 10  1  0
  9 11  2  0
 11 12  1  0
 11 13  1  0
 13 14  2  0
 13  5  1  0
  1 15  1  0
  1 16  1  0
  1 17  1  0
  2 18  1  0
  2 19  1  0
  3 20  1  0
  4 21  1  0
  4 22  1  0
  4 23  1  0
  8 24  1  0
 10 25  1  0
 10 26  1  0
 10 27  1  0
M  END
>  <Energy>  (2) 
-48.5299447810261

>  <Real charge>  (2) 
0

>  <Mult>  (2) 
1

$$$$
