mol_402 390
     RDKit          3D

 26 27  0  0  0  0  0  0  0  0999 V2000
   -4.9427    0.8920    1.1126 C   0  0  0  0  0  0  0  0  0  0  0  0
   -3.5850    0.2547    0.8780 C   0  0  0  0  0  0  0  0  0  0  0  0
   -2.7142    1.2554    0.3520 O   0  0  0  0  0  0  0  0  0  0  0  0
   -1.4285    0.8819    0.0658 C   0  0  0  0  0  0  0  0  0  0  0  0
   -0.6353    1.9070   -0.4487 C   0  0  0  0  0  0  0  0  0  0  0  0
    0.7033    1.6856   -0.7918 C   0  0  0  0  0  0  0  0  0  0  0  0
    1.2626    0.4065   -0.6156 C   0  0  0  0  0  0  0  0  0  0  0  0
    2.5671    0.0445   -0.9104 N   0  0  0  0  0  0  0  0  0  0  0  0
    2.7253   -1.2314   -0.6138 C   0  0  0  0  0  0  0  0  0  0  0  0
    1.3810   -2.0631    0.0137 S   0  0  0  0  0  0  0  0  0  0  0  0
    0.4548   -0.6112   -0.0985 C   0  0  0  0  0  0  0  0  0  0  0  0
   -0.8930   -0.3966    0.2490 C   0  0  0  0  0  0  0  0  0  0  0  0
    4.2396   -2.1354   -0.8303 S   0  0  0  0  0  6  0  0  0  0  0  0
    5.3825   -1.0264   -1.4071 N   0  0  0  0  0  0  0  0  0  0  0  0
    4.6768   -2.5092    0.4960 O   0  0  0  0  0  0  0  0  0  0  0  0
    3.9904   -3.0933   -1.8825 O   0  0  0  0  0  0  0  0  0  0  0  0
   -5.3460    1.2953    0.1777 H   0  0  0  0  0  0  0  0  0  0  0  0
   -4.8593    1.7307    1.8117 H   0  0  0  0  0  0  0  0  0  0  0  0
   -5.6507    0.1635    1.5176 H   0  0  0  0  0  0  0  0  0  0  0  0
   -3.6947   -0.5682    0.1622 H   0  0  0  0  0  0  0  0  0  0  0  0
   -3.1976   -0.1234    1.8311 H   0  0  0  0  0  0  0  0  0  0  0  0
   -1.0632    2.8982   -0.5870 H   0  0  0  0  0  0  0  0  0  0  0  0
    1.3092    2.4926   -1.1917 H   0  0  0  0  0  0  0  0  0  0  0  0
   -1.4756   -1.2195    0.6457 H   0  0  0  0  0  0  0  0  0  0  0  0
    5.8566   -0.5854   -0.6187 H   0  0  0  0  0  0  0  0  0  0  0  0
    4.9366   -0.3449   -2.0244 H   0  0  0  0  0  0  0  0  0  0  0  0
  1  2  1  0
  2  3  1  0
  3  4  1  0
  4  5  2  0
  5  6  1  0
  6  7  2  0
  7  8  1  0
  8  9  2  0
  9 10  1  0
 10 11  1  0
 11 12  2  0
  9 13  1  0
 13 14  1  0
 13 15  2  0
 13 16  2  0
 11  7  1  0
 12  4  1  0
  1 17  1  0
  1 18  1  0
  1 19  1  0
  2 20  1  0
  2 21  1  0
  5 22  1  0
  6 23  1  0
 12 24  1  0
 14 25  1  0
 14 26  1  0
M  END
>  <Energy>  (1) 
-1.3345501416542946

>  <Real charge>  (1) 
0

>  <Mult>  (1) 
1

$$$$
mol_402 332
     RDKit          3D

 26 27  0  0  0  0  0  0  0  0999 V2000
    5.1757    0.2836    0.5582 C   0  0  0  0  0  0  0  0  0  0  0  0
    3.8005    0.7916    0.1641 C   0  0  0  0  0  0  0  0  0  0  0  0
    2.8627   -0.2607    0.3857 O   0  0  0  0  0  0  0  0  0  0  0  0
    1.5509   -0.0074    0.0880 C   0  0  0  0  0  0  0  0  0  0  0  0
    1.0452    1.1906   -0.4094 C   0  0  0  0  0  0  0  0  0  0  0  0
   -0.3242    1.3312   -0.6769 C   0  0  0  0  0  0  0  0  0  0  0  0
   -1.2031    0.2556   -0.4431 C   0  0  0  0  0  0  0  0  0  0  0  0
   -2.5708    0.2622   -0.6634 N   0  0  0  0  0  0  0  0  0  0  0  0
   -3.0535   -0.9200   -0.3293 C   0  0  0  0  0  0  0  0  0  0  0  0
   -1.9541   -2.0818    0.2493 S   0  0  0  0  0  0  0  0  0  0  0  0
   -0.6772   -0.9395    0.0565 C   0  0  0  0  0  0  0  0  0  0  0  0
    0.6926   -1.0879    0.3269 C   0  0  0  0  0  0  0  0  0  0  0  0
   -4.7663   -1.3778   -0.4483 S   0  0  0  0  0  6  0  0  0  0  0  0
   -5.5933   -0.0013   -0.9882 N   0  0  0  0  0  0  0  0  0  0  0  0
   -5.2164   -1.6083    0.9061 O   0  0  0  0  0  0  0  0  0  0  0  0
   -4.8476   -2.3731   -1.4920 O   0  0  0  0  0  0  0  0  0  0  0  0
    5.9349    1.0561    0.4067 H   0  0  0  0  0  0  0  0  0  0  0  0
    5.1870   -0.0221    1.6097 H   0  0  0  0  0  0  0  0  0  0  0  0
    5.4451   -0.5979   -0.0329 H   0  0  0  0  0  0  0  0  0  0  0  0
    3.5493    1.6610    0.7825 H   0  0  0  0  0  0  0  0  0  0  0  0
    3.8129    1.0729   -0.8952 H   0  0  0  0  0  0  0  0  0  0  0  0
    1.6861    2.0448   -0.6044 H   0  0  0  0  0  0  0  0  0  0  0  0
   -0.7137    2.2675   -1.0651 H   0  0  0  0  0  0  0  0  0  0  0  0
    1.0844   -2.0241    0.7148 H   0  0  0  0  0  0  0  0  0  0  0  0
   -5.0039    0.5402   -1.6237 H   0  0  0  0  0  0  0  0  0  0  0  0
   -5.9033    0.5446   -0.1840 H   0  0  0  0  0  0  0  0  0  0  0  0
  1  2  1  0
  2  3  1  0
  3  4  1  0
  4  5  2  0
  5  6  1  0
  6  7  2  0
  7  8  1  0
  8  9  2  0
  9 10  1  0
 10 11  1  0
 11 12  2  0
  9 13  1  0
 13 14  1  0
 13 15  2  0
 13 16  2  0
 11  7  1  0
 12  4  1  0
  1 17  1  0
  1 18  1  0
  1 19  1  0
  2 20  1  0
  2 21  1  0
  5 22  1  0
  6 23  1  0
 12 24  1  0
 14 25  1  0
 14 26  1  0
M  END
>  <Energy>  (2) 
-1.1846967903634966

>  <Real charge>  (2) 
0

>  <Mult>  (2) 
1

$$$$
mol_402 184
     RDKit          3D

 26 27  0  0  0  0  0  0  0  0999 V2000
    5.1894   -0.5777    0.0476 C   0  0  0  0  0  0  0  0  0  0  0  0
    3.6859   -0.7297    0.1936 C   0  0  0  0  0  0  0  0  0  0  0  0
    3.0643    0.3355   -0.5240 O   0  0  0  0  0  0  0  0  0  0  0  0
    1.6959    0.3817   -0.5183 C   0  0  0  0  0  0  0  0  0  0  0  0
    1.1556    1.4468   -1.2382 C   0  0  0  0  0  0  0  0  0  0  0  0
   -0.2286    1.6324   -1.3282 C   0  0  0  0  0  0  0  0  0  0  0  0
   -1.0937    0.7301   -0.6821 C   0  0  0  0  0  0  0  0  0  0  0  0
   -2.4762    0.7900   -0.6855 N   0  0  0  0  0  0  0  0  0  0  0  0
   -2.9506   -0.2165    0.0218 C   0  0  0  0  0  0  0  0  0  0  0  0
   -1.8097   -1.2744    0.7202 S   0  0  0  0  0  0  0  0  0  0  0  0
   -0.5374   -0.3322    0.0354 C   0  0  0  0  0  0  0  0  0  0  0  0
    0.8542   -0.5266    0.1313 C   0  0  0  0  0  0  0  0  0  0  0  0
   -4.6643   -0.5694    0.3122 S   0  0  0  0  0  6  0  0  0  0  0  0
   -5.6156    0.5892   -0.4608 N   0  0  0  0  0  0  0  0  0  0  0  0
   -4.8973   -0.3799    1.7270 O   0  0  0  0  0  0  0  0  0  0  0  0
   -4.9545   -1.8179   -0.3577 O   0  0  0  0  0  0  0  0  0  0  0  0
    5.5190    0.3900    0.4402 H   0  0  0  0  0  0  0  0  0  0  0  0
    5.7155   -1.3736    0.5821 H   0  0  0  0  0  0  0  0  0  0  0  0
    5.4793   -0.6089   -1.0080 H   0  0  0  0  0  0  0  0  0  0  0  0
    3.3819   -1.6969   -0.2228 H   0  0  0  0  0  0  0  0  0  0  0  0
    3.4225   -0.6767    1.2563 H   0  0  0  0  0  0  0  0  0  0  0  0
    1.8196    2.1478   -1.7399 H   0  0  0  0  0  0  0  0  0  0  0  0
   -0.6388    2.4649   -1.8911 H   0  0  0  0  0  0  0  0  0  0  0  0
    1.2339   -1.3666    0.7003 H   0  0  0  0  0  0  0  0  0  0  0  0
   -6.1559    1.1031    0.2351 H   0  0  0  0  0  0  0  0  0  0  0  0
   -6.1944    0.1356   -1.1675 H   0  0  0  0  0  0  0  0  0  0  0  0
  1  2  1  0
  2  3  1  0
  3  4  1  0
  4  5  2  0
  5  6  1  0
  6  7  2  0
  7  8  1  0
  8  9  2  0
  9 10  1  0
 10 11  1  0
 11 12  2  0
  9 13  1  0
 13 14  1  0
 13 15  2  0
 13 16  2  0
 11  7  1  0
 12  4  1  0
  1 17  1  0
  1 18  1  0
  1 19  1  0
  2 20  1  0
  2 21  1  0
  5 22  1  0
  6 23  1  0
 12 24  1  0
 14 25  1  0
 14 26  1  0
M  END
>  <Energy>  (3) 
-0.8491280455874639

>  <Real charge>  (3) 
0

>  <Mult>  (3) 
1

$$$$
mol_402 105
     RDKit          3D

 26 27  0  0  0  0  0  0  0  0999 V2000
   -5.2456    0.7321   -0.1136 C   0  0  0  0  0  0  0  0  0  0  0  0
   -3.9534    0.0918    0.3607 C   0  0  0  0  0  0  0  0  0  0  0  0
   -2.8743    0.7068   -0.3416 O   0  0  0  0  0  0  0  0  0  0  0  0
   -1.6088    0.2685   -0.0574 C   0  0  0  0  0  0  0  0  0  0  0  0
   -1.2783   -0.7268    0.8584 C   0  0  0  0  0  0  0  0  0  0  0  0
    0.0602   -1.0909    1.0640 C   0  0  0  0  0  0  0  0  0  0  0  0
    1.0852   -0.4493    0.3421 C   0  0  0  0  0  0  0  0  0  0  0  0
    2.4393   -0.7121    0.4492 N   0  0  0  0  0  0  0  0  0  0  0  0
    3.0950    0.0798   -0.3770 C   0  0  0  0  0  0  0  0  0  0  0  0
    2.1646    1.1616   -1.3116 S   0  0  0  0  0  0  0  0  0  0  0  0
    0.7346    0.5469   -0.5724 C   0  0  0  0  0  0  0  0  0  0  0  0
   -0.6031    0.9176   -0.7844 C   0  0  0  0  0  0  0  0  0  0  0  0
    4.8535    0.1215   -0.6038 S   0  0  0  0  0  6  0  0  0  0  0  0
    5.5772   -1.0183    0.4082 N   0  0  0  0  0  0  0  0  0  0  0  0
    5.3088    1.4075   -0.1235 O   0  0  0  0  0  0  0  0  0  0  0  0
    5.1146   -0.3375   -1.9502 O   0  0  0  0  0  0  0  0  0  0  0  0
   -5.3682    0.5987   -1.1936 H   0  0  0  0  0  0  0  0  0  0  0  0
   -5.2334    1.8107    0.0750 H   0  0  0  0  0  0  0  0  0  0  0  0
   -6.1080    0.2940    0.3965 H   0  0  0  0  0  0  0  0  0  0  0  0
   -3.9855   -0.9820    0.1435 H   0  0  0  0  0  0  0  0  0  0  0  0
   -3.8477    0.2559    1.4392 H   0  0  0  0  0  0  0  0  0  0  0  0
   -2.0351   -1.2476    1.4364 H   0  0  0  0  0  0  0  0  0  0  0  0
    0.3161   -1.8675    1.7787 H   0  0  0  0  0  0  0  0  0  0  0  0
   -0.8578    1.6946   -1.4996 H   0  0  0  0  0  0  0  0  0  0  0  0
    6.1904   -0.5412    1.0690 H   0  0  0  0  0  0  0  0  0  0  0  0
    6.0598   -1.7148   -0.1595 H   0  0  0  0  0  0  0  0  0  0  0  0
  1  2  1  0
  2  3  1  0
  3  4  1  0
  4  5  2  0
  5  6  1  0
  6  7  2  0
  7  8  1  0
  8  9  2  0
  9 10  1  0
 10 11  1  0
 11 12  2  0
  9 13  1  0
 13 14  1  0
 13 15  2  0
 13 16  2  0
 11  7  1  0
 12  4  1  0
  1 17  1  0
  1 18  1  0
  1 19  1  0
  2 20  1  0
  2 21  1  0
  5 22  1  0
  6 23  1  0
 12 24  1  0
 14 25  1  0
 14 26  1  0
M  END
>  <Energy>  (4) 
-0.805902243074716

>  <Real charge>  (4) 
0

>  <Mult>  (4) 
1

$$$$
