mol_1045 42
     RDKit          3D

 13 13  0  0  0  0  0  0  0  0999 V2000
    2.7017   -0.8136   -0.5470 S   0  0  0  0  0  0  0  0  0  0  0  0
    1.0117   -0.3511   -0.2375 C   0  0  0  0  0  0  0  0  0  0  0  0
    0.6466    0.9946   -0.1384 C   0  0  0  0  0  0  0  0  0  0  0  0
   -0.6845    1.3462    0.0981 C   0  0  0  0  0  0  0  0  0  0  0  0
   -1.6551    0.3545    0.2325 C   0  0  0  0  0  0  0  0  0  0  0  0
   -1.2971   -0.9886    0.1279 C   0  0  0  0  0  0  0  0  0  0  0  0
    0.0334   -1.3408   -0.1089 C   0  0  0  0  0  0  0  0  0  0  0  0
    3.2643    0.1507    0.1954 H   0  0  0  0  0  0  0  0  0  0  0  0
    1.3888    1.7810   -0.2489 H   0  0  0  0  0  0  0  0  0  0  0  0
   -0.9641    2.3938    0.1743 H   0  0  0  0  0  0  0  0  0  0  0  0
   -2.6912    0.6284    0.4153 H   0  0  0  0  0  0  0  0  0  0  0  0
   -2.0532   -1.7630    0.2285 H   0  0  0  0  0  0  0  0  0  0  0  0
    0.2987   -2.3922   -0.1913 H   0  0  0  0  0  0  0  0  0  0  0  0
  1  2  1  0
  2  3  2  0
  3  4  1  0
  4  5  2  0
  5  6  1  0
  6  7  2  0
  7  2  1  0
  1  8  1  0
  3  9  1  0
  4 10  1  0
  5 11  1  0
  6 12  1  0
  7 13  1  0
M  END
>  <Energy>  (1) 
12.911643104565197

>  <Real charge>  (1) 
0

>  <Mult>  (1) 
1

$$$$
