mol_829 65
     RDKit          3D

 26 27  0  0  0  0  0  0  0  0999 V2000
    4.3272   -0.0007   -0.3839 O   0  0  0  0  0  0  0  0  0  0  0  0
    3.1009   -0.0224   -0.3712 C   0  0  0  0  0  0  0  0  0  0  0  0
    2.3906    0.6282    0.5896 N   0  0  0  0  0  0  0  0  0  0  0  0
    1.1637    0.1894    1.0098 C   0  0  0  0  0  0  0  0  0  0  0  0
    0.8379    0.3046    2.1870 O   0  0  0  0  0  0  0  0  0  0  0  0
    0.2805   -0.4071   -0.0831 C   0  0  0  0  0  0  0  0  0  0  0  0
   -0.8805   -1.2370    0.5079 C   0  0  0  0  0  0  0  0  0  0  0  0
   -2.0051   -0.4021    1.1229 C   0  0  0  0  0  0  0  0  0  0  0  0
   -2.5047    0.6723    0.1672 C   0  0  0  0  0  0  0  0  0  0  0  0
   -1.3628    1.5535   -0.3193 C   0  0  0  0  0  0  0  0  0  0  0  0
   -0.2620    0.7294   -0.9845 C   0  0  0  0  0  0  0  0  0  0  0  0
    1.1606   -1.2951   -0.9601 C   0  0  0  0  0  0  0  0  0  0  0  0
    0.8166   -2.3803   -1.4191 O   0  0  0  0  0  0  0  0  0  0  0  0
    2.3962   -0.7823   -1.2529 N   0  0  0  0  0  0  0  0  0  0  0  0
    2.9693    1.0160    1.3237 H   0  0  0  0  0  0  0  0  0  0  0  0
   -1.3284   -1.8592   -0.2786 H   0  0  0  0  0  0  0  0  0  0  0  0
   -0.4994   -1.9356    1.2641 H   0  0  0  0  0  0  0  0  0  0  0  0
   -2.8369   -1.0616    1.3972 H   0  0  0  0  0  0  0  0  0  0  0  0
   -1.6652    0.0667    2.0527 H   0  0  0  0  0  0  0  0  0  0  0  0
   -2.9963    0.1998   -0.6921 H   0  0  0  0  0  0  0  0  0  0  0  0
   -3.2599    1.2887    0.6677 H   0  0  0  0  0  0  0  0  0  0  0  0
   -0.9470    2.1192    0.5230 H   0  0  0  0  0  0  0  0  0  0  0  0
   -1.7486    2.2894   -1.0341 H   0  0  0  0  0  0  0  0  0  0  0  0
   -0.6626    0.2976   -1.9123 H   0  0  0  0  0  0  0  0  0  0  0  0
    0.5411    1.4101   -1.2942 H   0  0  0  0  0  0  0  0  0  0  0  0
    2.9749   -1.3816   -1.8273 H   0  0  0  0  0  0  0  0  0  0  0  0
  1  2  2  0
  2  3  1  0
  3  4  1  0
  4  5  2  0
  4  6  1  0
  6  7  1  0
  7  8  1  0
  8  9  1  0
  9 10  1  0
 10 11  1  0
  6 12  1  0
 12 13  2  0
 12 14  1  0
 11  6  1  0
 14  2  1  0
  3 15  1  0
  7 16  1  0
  7 17  1  0
  8 18  1  0
  8 19  1  0
  9 20  1  0
  9 21  1  0
 10 22  1  0
 10 23  1  0
 11 24  1  0
 11 25  1  0
 14 26  1  0
M  END
>  <Energy>  (1) 
-128.34446938466672

>  <Real charge>  (1) 
0

>  <Mult>  (1) 
1

$$$$
