mol_421 104
     RDKit          3D

 53 56  0  0  0  0  0  0  0  0999 V2000
    5.5276    0.6502    1.6436 C   0  0  0  0  0  0  0  0  0  0  0  0
    4.3838    1.0074    0.7256 C   0  0  0  0  0  0  0  0  0  0  0  0
    4.2849    2.1499    0.2799 O   0  0  0  0  0  0  0  0  0  0  0  0
    3.4331   -0.1227    0.3287 C   0  0  0  0  0  0  0  0  0  0  0  0
    2.9518   -0.9461    1.5291 C   0  0  0  0  0  0  0  0  0  0  0  0
    1.5894   -1.5196    1.1399 C   0  0  0  0  0  0  0  0  0  0  0  0
    1.3238   -1.0479   -0.2992 C   0  0  0  0  0  0  0  0  0  0  0  0
   -0.1640   -0.9300   -0.6960 C   0  0  0  0  0  0  0  0  0  0  0  0
   -0.9107   -2.2491   -0.4487 C   0  0  0  0  0  0  0  0  0  0  0  0
   -2.3515   -2.1687   -0.9331 C   0  0  0  0  0  0  0  0  0  0  0  0
   -3.0860   -1.0100   -0.3025 C   0  0  0  0  0  0  0  0  0  0  0  0
   -4.2783   -1.2187    0.2841 C   0  0  0  0  0  0  0  0  0  0  0  0
   -5.0962   -0.1017    0.8089 C   0  0  0  0  0  0  0  0  0  0  0  0
   -6.1625   -0.3444    1.3687 O   0  0  0  0  0  0  0  0  0  0  0  0
   -4.6212    1.3035    0.5527 C   0  0  0  0  0  0  0  0  0  0  0  0
   -3.1006    1.3637    0.5786 C   0  0  0  0  0  0  0  0  0  0  0  0
   -2.4139    0.3657   -0.4023 C   0  0  0  0  0  0  0  0  0  0  0  0
   -2.5945    0.8826   -1.8479 C   0  0  0  0  0  0  0  0  0  0  0  0
   -0.8910    0.2470    0.0026 C   0  0  0  0  0  0  0  0  0  0  0  0
   -0.0965    1.5507   -0.2053 C   0  0  0  0  0  0  0  0  0  0  0  0
    1.3555    1.4295    0.2620 C   0  0  0  0  0  0  0  0  0  0  0  0
    2.1270    0.2715   -0.4158 C   0  0  0  0  0  0  0  0  0  0  0  0
    2.4238    0.6110   -1.8868 C   0  0  0  0  0  0  0  0  0  0  0  0
    5.1532    0.4530    2.6504 H   0  0  0  0  0  0  0  0  0  0  0  0
    6.2339    1.4842    1.6895 H   0  0  0  0  0  0  0  0  0  0  0  0
    6.0525   -0.2259    1.2545 H   0  0  0  0  0  0  0  0  0  0  0  0
    4.0220   -0.7868   -0.3212 H   0  0  0  0  0  0  0  0  0  0  0  0
    2.8536   -0.3332    2.4327 H   0  0  0  0  0  0  0  0  0  0  0  0
    3.6618   -1.7476    1.7623 H   0  0  0  0  0  0  0  0  0  0  0  0
    0.8316   -1.1629    1.8446 H   0  0  0  0  0  0  0  0  0  0  0  0
    1.5930   -2.6135    1.1991 H   0  0  0  0  0  0  0  0  0  0  0  0
    1.7810   -1.7944   -0.9669 H   0  0  0  0  0  0  0  0  0  0  0  0
   -0.1820   -0.7441   -1.7782 H   0  0  0  0  0  0  0  0  0  0  0  0
   -0.9055   -2.5007    0.6191 H   0  0  0  0  0  0  0  0  0  0  0  0
   -0.4023   -3.0683   -0.9715 H   0  0  0  0  0  0  0  0  0  0  0  0
   -2.8502   -3.1213   -0.7160 H   0  0  0  0  0  0  0  0  0  0  0  0
   -2.3693   -2.0539   -2.0238 H   0  0  0  0  0  0  0  0  0  0  0  0
   -4.7353   -2.1996    0.3573 H   0  0  0  0  0  0  0  0  0  0  0  0
   -5.0195    1.9537    1.3395 H   0  0  0  0  0  0  0  0  0  0  0  0
   -5.0250    1.6422   -0.4065 H   0  0  0  0  0  0  0  0  0  0  0  0
   -2.7918    2.3934    0.3634 H   0  0  0  0  0  0  0  0  0  0  0  0
   -2.7725    1.1502    1.6056 H   0  0  0  0  0  0  0  0  0  0  0  0
   -2.0132    0.3018   -2.5709 H   0  0  0  0  0  0  0  0  0  0  0  0
   -3.6420    0.8294   -2.1670 H   0  0  0  0  0  0  0  0  0  0  0  0
   -2.2864    1.9293   -1.9430 H   0  0  0  0  0  0  0  0  0  0  0  0
   -0.8737    0.0363    1.0819 H   0  0  0  0  0  0  0  0  0  0  0  0
   -0.1095    1.8458   -1.2597 H   0  0  0  0  0  0  0  0  0  0  0  0
   -0.5592    2.3711    0.3534 H   0  0  0  0  0  0  0  0  0  0  0  0
    1.8508    2.3868    0.0644 H   0  0  0  0  0  0  0  0  0  0  0  0
    1.3560    1.3093    1.3522 H   0  0  0  0  0  0  0  0  0  0  0  0
    1.5088    0.7611   -2.4674 H   0  0  0  0  0  0  0  0  0  0  0  0
    3.0205    1.5250   -1.9717 H   0  0  0  0  0  0  0  0  0  0  0  0
    2.9851   -0.1942   -2.3742 H   0  0  0  0  0  0  0  0  0  0  0  0
  1  2  1  0
  2  3  2  0
  2  4  1  0
  4  5  1  0
  5  6  1  0
  6  7  1  0
  7  8  1  0
  8  9  1  0
  9 10  1  0
 10 11  1  0
 11 12  2  0
 12 13  1  0
 13 14  2  0
 13 15  1  0
 15 16  1  0
 16 17  1  0
 17 18  1  0
 17 19  1  0
 19 20  1  0
 20 21  1  0
 21 22  1  0
 22 23  1  0
 22  4  1  0
 22  7  1  0
 19  8  1  0
 17 11  1  0
  1 24  1  0
  1 25  1  0
  1 26  1  0
  4 27  1  0
  5 28  1  0
  5 29  1  0
  6 30  1  0
  6 31  1  0
  7 32  1  0
  8 33  1  0
  9 34  1  0
  9 35  1  0
 10 36  1  0
 10 37  1  0
 12 38  1  0
 15 39  1  0
 15 40  1  0
 16 41  1  0
 16 42  1  0
 18 43  1  0
 18 44  1  0
 18 45  1  0
 19 46  1  0
 20 47  1  0
 20 48  1  0
 21 49  1  0
 21 50  1  0
 23 51  1  0
 23 52  1  0
 23 53  1  0
M  END
>  <Energy>  (1) 
70.6954249278407

>  <Real charge>  (1) 
0

>  <Mult>  (1) 
1

$$$$
mol_421 225
     RDKit          3D

 53 56  0  0  0  0  0  0  0  0999 V2000
    5.2265    0.3741   -1.3369 C   0  0  0  0  0  0  0  0  0  0  0  0
    4.2674   -0.7421   -1.0108 C   0  0  0  0  0  0  0  0  0  0  0  0
    4.1280   -1.6875   -1.7874 O   0  0  0  0  0  0  0  0  0  0  0  0
    3.4526   -0.6095    0.2764 C   0  0  0  0  0  0  0  0  0  0  0  0
    2.9878   -1.9712    0.8278 C   0  0  0  0  0  0  0  0  0  0  0  0
    1.5064   -1.8274    1.1617 C   0  0  0  0  0  0  0  0  0  0  0  0
    1.2770   -0.3177    1.2800 C   0  0  0  0  0  0  0  0  0  0  0  0
   -0.1980    0.1395    1.2250 C   0  0  0  0  0  0  0  0  0  0  0  0
   -1.0430   -0.5820    2.2854 C   0  0  0  0  0  0  0  0  0  0  0  0
   -2.4695   -0.0516    2.3107 C   0  0  0  0  0  0  0  0  0  0  0  0
   -3.1221   -0.1480    0.9526 C   0  0  0  0  0  0  0  0  0  0  0  0
   -4.3332   -0.7217    0.8367 C   0  0  0  0  0  0  0  0  0  0  0  0
   -5.0721   -0.7342   -0.4463 C   0  0  0  0  0  0  0  0  0  0  0  0
   -6.1642   -1.2933   -0.5092 O   0  0  0  0  0  0  0  0  0  0  0  0
   -4.4869    0.0244   -1.6073 C   0  0  0  0  0  0  0  0  0  0  0  0
   -2.9664   -0.0346   -1.5711 C   0  0  0  0  0  0  0  0  0  0  0  0
   -2.3485    0.4556   -0.2267 C   0  0  0  0  0  0  0  0  0  0  0  0
   -2.4803    1.9938   -0.1473 C   0  0  0  0  0  0  0  0  0  0  0  0
   -0.8406   -0.0160   -0.1773 C   0  0  0  0  0  0  0  0  0  0  0  0
    0.0486    0.6589   -1.2402 C   0  0  0  0  0  0  0  0  0  0  0  0
    1.4802    0.1230   -1.2181 C   0  0  0  0  0  0  0  0  0  0  0  0
    2.1711    0.2654    0.1584 C   0  0  0  0  0  0  0  0  0  0  0  0
    2.4968    1.7438    0.4383 C   0  0  0  0  0  0  0  0  0  0  0  0
    5.9806    0.0103   -2.0407 H   0  0  0  0  0  0  0  0  0  0  0  0
    5.7406    0.7059   -0.4316 H   0  0  0  0  0  0  0  0  0  0  0  0
    4.6849    1.2064   -1.7900 H   0  0  0  0  0  0  0  0  0  0  0  0
    4.1285   -0.1858    1.0323 H   0  0  0  0  0  0  0  0  0  0  0  0
    3.5498   -2.1997    1.7419 H   0  0  0  0  0  0  0  0  0  0  0  0
    3.1477   -2.8121    0.1460 H   0  0  0  0  0  0  0  0  0  0  0  0
    1.2601   -2.3557    2.0885 H   0  0  0  0  0  0  0  0  0  0  0  0
    0.9054   -2.2726    0.3623 H   0  0  0  0  0  0  0  0  0  0  0  0
    1.6831   -0.0049    2.2542 H   0  0  0  0  0  0  0  0  0  0  0  0
   -0.1994    1.2075    1.4801 H   0  0  0  0  0  0  0  0  0  0  0  0
   -0.5928   -0.4464    3.2762 H   0  0  0  0  0  0  0  0  0  0  0  0
   -1.0663   -1.6612    2.0895 H   0  0  0  0  0  0  0  0  0  0  0  0
   -3.0389   -0.6072    3.0659 H   0  0  0  0  0  0  0  0  0  0  0  0
   -2.4691    0.9962    2.6348 H   0  0  0  0  0  0  0  0  0  0  0  0
   -4.8628   -1.1549    1.6783 H   0  0  0  0  0  0  0  0  0  0  0  0
   -4.8416   -0.4352   -2.5365 H   0  0  0  0  0  0  0  0  0  0  0  0
   -4.8539    1.0549   -1.5748 H   0  0  0  0  0  0  0  0  0  0  0  0
   -2.6651   -1.0758   -1.7530 H   0  0  0  0  0  0  0  0  0  0  0  0
   -2.5782    0.5509   -2.4128 H   0  0  0  0  0  0  0  0  0  0  0  0
   -3.5267    2.3038   -0.0421 H   0  0  0  0  0  0  0  0  0  0  0  0
   -2.0951    2.4783   -1.0508 H   0  0  0  0  0  0  0  0  0  0  0  0
   -1.9386    2.4121    0.7068 H   0  0  0  0  0  0  0  0  0  0  0  0
   -0.8454   -1.0921   -0.4056 H   0  0  0  0  0  0  0  0  0  0  0  0
   -0.3574    0.4849   -2.2423 H   0  0  0  0  0  0  0  0  0  0  0  0
    0.0681    1.7440   -1.0956 H   0  0  0  0  0  0  0  0  0  0  0  0
    2.0603    0.6481   -1.9873 H   0  0  0  0  0  0  0  0  0  0  0  0
    1.4522   -0.9298   -1.5263 H   0  0  0  0  0  0  0  0  0  0  0  0
    3.1327    2.1681   -0.3441 H   0  0  0  0  0  0  0  0  0  0  0  0
    3.0245    1.8597    1.3918 H   0  0  0  0  0  0  0  0  0  0  0  0
    1.5950    2.3608    0.4951 H   0  0  0  0  0  0  0  0  0  0  0  0
  1  2  1  0
  2  3  2  0
  2  4  1  0
  4  5  1  0
  5  6  1  0
  6  7  1  0
  7  8  1  0
  8  9  1  0
  9 10  1  0
 10 11  1  0
 11 12  2  0
 12 13  1  0
 13 14  2  0
 13 15  1  0
 15 16  1  0
 16 17  1  0
 17 18  1  0
 17 19  1  0
 19 20  1  0
 20 21  1  0
 21 22  1  0
 22 23  1  0
 22  4  1  0
 22  7  1  0
 19  8  1  0
 17 11  1  0
  1 24  1  0
  1 25  1  0
  1 26  1  0
  4 27  1  0
  5 28  1  0
  5 29  1  0
  6 30  1  0
  6 31  1  0
  7 32  1  0
  8 33  1  0
  9 34  1  0
  9 35  1  0
 10 36  1  0
 10 37  1  0
 12 38  1  0
 15 39  1  0
 15 40  1  0
 16 41  1  0
 16 42  1  0
 18 43  1  0
 18 44  1  0
 18 45  1  0
 19 46  1  0
 20 47  1  0
 20 48  1  0
 21 49  1  0
 21 50  1  0
 23 51  1  0
 23 52  1  0
 23 53  1  0
M  END
>  <Energy>  (2) 
70.71079079068687

>  <Real charge>  (2) 
0

>  <Mult>  (2) 
1

$$$$
mol_421 16
     RDKit          3D

 53 56  0  0  0  0  0  0  0  0999 V2000
    5.6295    0.6970    0.9487 C   0  0  0  0  0  0  0  0  0  0  0  0
    4.5430    0.0760    0.1087 C   0  0  0  0  0  0  0  0  0  0  0  0
    4.6456   -1.0792   -0.3040 O   0  0  0  0  0  0  0  0  0  0  0  0
    3.3227    0.9501   -0.1912 C   0  0  0  0  0  0  0  0  0  0  0  0
    2.9850    0.8715   -1.6875 C   0  0  0  0  0  0  0  0  0  0  0  0
    1.7432   -0.0146   -1.8141 C   0  0  0  0  0  0  0  0  0  0  0  0
    1.4478   -0.5569   -0.4066 C   0  0  0  0  0  0  0  0  0  0  0  0
   -0.0288   -0.9178   -0.1281 C   0  0  0  0  0  0  0  0  0  0  0  0
   -0.5618   -1.9101   -1.1724 C   0  0  0  0  0  0  0  0  0  0  0  0
   -1.9808   -2.3514   -0.8436 C   0  0  0  0  0  0  0  0  0  0  0  0
   -2.9118   -1.1709   -0.7013 C   0  0  0  0  0  0  0  0  0  0  0  0
   -4.0732   -1.1550   -1.3797 C   0  0  0  0  0  0  0  0  0  0  0  0
   -5.0767   -0.0841   -1.1839 C   0  0  0  0  0  0  0  0  0  0  0  0
   -6.1081   -0.0918   -1.8511 O   0  0  0  0  0  0  0  0  0  0  0  0
   -4.8254    0.9303   -0.1006 C   0  0  0  0  0  0  0  0  0  0  0  0
   -3.3359    1.2171    0.0244 C   0  0  0  0  0  0  0  0  0  0  0  0
   -2.4665   -0.0561    0.2539 C   0  0  0  0  0  0  0  0  0  0  0  0
   -2.6814   -0.5528    1.7019 C   0  0  0  0  0  0  0  0  0  0  0  0
   -0.9578    0.3206   -0.0293 C   0  0  0  0  0  0  0  0  0  0  0  0
   -0.3797    1.3388    0.9745 C   0  0  0  0  0  0  0  0  0  0  0  0
    1.0597    1.7291    0.6371 C   0  0  0  0  0  0  0  0  0  0  0  0
    2.0232    0.5187    0.5392 C   0  0  0  0  0  0  0  0  0  0  0  0
    2.2842   -0.0393    1.9492 C   0  0  0  0  0  0  0  0  0  0  0  0
    6.4175   -0.0384    1.1336 H   0  0  0  0  0  0  0  0  0  0  0  0
    6.0592    1.5494    0.4169 H   0  0  0  0  0  0  0  0  0  0  0  0
    5.2182    1.0191    1.9080 H   0  0  0  0  0  0  0  0  0  0  0  0
    3.5968    1.9812    0.0654 H   0  0  0  0  0  0  0  0  0  0  0  0
    2.7570    1.8714   -2.0759 H   0  0  0  0  0  0  0  0  0  0  0  0
    3.8106    0.4798   -2.2918 H   0  0  0  0  0  0  0  0  0  0  0  0
    1.9187   -0.8336   -2.5203 H   0  0  0  0  0  0  0  0  0  0  0  0
    0.9152    0.5794   -2.2141 H   0  0  0  0  0  0  0  0  0  0  0  0
    2.0323   -1.4809   -0.2898 H   0  0  0  0  0  0  0  0  0  0  0  0
   -0.0434   -1.4287    0.8440 H   0  0  0  0  0  0  0  0  0  0  0  0
   -0.5493   -1.4601   -2.1729 H   0  0  0  0  0  0  0  0  0  0  0  0
    0.0875   -2.7931   -1.2122 H   0  0  0  0  0  0  0  0  0  0  0  0
   -1.9826   -2.9242    0.0918 H   0  0  0  0  0  0  0  0  0  0  0  0
   -2.3265   -3.0385   -1.6257 H   0  0  0  0  0  0  0  0  0  0  0  0
   -4.3681   -1.9457   -2.0611 H   0  0  0  0  0  0  0  0  0  0  0  0
   -5.2471    0.5556    0.8373 H   0  0  0  0  0  0  0  0  0  0  0  0
   -5.3482    1.8564   -0.3639 H   0  0  0  0  0  0  0  0  0  0  0  0
   -3.1899    1.9381    0.8373 H   0  0  0  0  0  0  0  0  0  0  0  0
   -3.0110    1.7196   -0.8975 H   0  0  0  0  0  0  0  0  0  0  0  0
   -1.9907   -1.3584    1.9702 H   0  0  0  0  0  0  0  0  0  0  0  0
   -2.5440    0.2542    2.4295 H   0  0  0  0  0  0  0  0  0  0  0  0
   -3.6957   -0.9427    1.8478 H   0  0  0  0  0  0  0  0  0  0  0  0
   -0.9414    0.8082   -1.0151 H   0  0  0  0  0  0  0  0  0  0  0  0
   -0.4172    0.9409    1.9934 H   0  0  0  0  0  0  0  0  0  0  0  0
   -0.9818    2.2537    0.9764 H   0  0  0  0  0  0  0  0  0  0  0  0
    1.4268    2.4349    1.3934 H   0  0  0  0  0  0  0  0  0  0  0  0
    1.0445    2.2890   -0.3067 H   0  0  0  0  0  0  0  0  0  0  0  0
    2.7783    0.7088    2.5788 H   0  0  0  0  0  0  0  0  0  0  0  0
    1.3592   -0.3340    2.4536 H   0  0  0  0  0  0  0  0  0  0  0  0
    2.9193   -0.9309    1.9254 H   0  0  0  0  0  0  0  0  0  0  0  0
  1  2  1  0
  2  3  2  0
  2  4  1  0
  4  5  1  0
  5  6  1  0
  6  7  1  0
  7  8  1  0
  8  9  1  0
  9 10  1  0
 10 11  1  0
 11 12  2  0
 12 13  1  0
 13 14  2  0
 13 15  1  0
 15 16  1  0
 16 17  1  0
 17 18  1  0
 17 19  1  0
 19 20  1  0
 20 21  1  0
 21 22  1  0
 22 23  1  0
 22  4  1  0
 22  7  1  0
 19  8  1  0
 17 11  1  0
  1 24  1  0
  1 25  1  0
  1 26  1  0
  4 27  1  0
  5 28  1  0
  5 29  1  0
  6 30  1  0
  6 31  1  0
  7 32  1  0
  8 33  1  0
  9 34  1  0
  9 35  1  0
 10 36  1  0
 10 37  1  0
 12 38  1  0
 15 39  1  0
 15 40  1  0
 16 41  1  0
 16 42  1  0
 18 43  1  0
 18 44  1  0
 18 45  1  0
 19 46  1  0
 20 47  1  0
 20 48  1  0
 21 49  1  0
 21 50  1  0
 23 51  1  0
 23 52  1  0
 23 53  1  0
M  END
>  <Energy>  (3) 
71.02431243217144

>  <Real charge>  (3) 
0

>  <Mult>  (3) 
1

$$$$
