mol_325 60
     RDKit          3D

 22 23  0  0  0  0  0  0  0  0999 V2000
   -5.2299    0.2713    0.1797 Cl  0  0  0  0  0  0  0  0  0  0  0  0
   -3.5129    0.1821    0.1204 C   0  0  0  0  0  0  0  0  0  0  0  0
   -2.8728   -1.0256    0.3879 C   0  0  0  0  0  0  0  0  0  0  0  0
   -1.4779   -1.0979    0.3382 C   0  0  0  0  0  0  0  0  0  0  0  0
   -0.7124    0.0363    0.0230 C   0  0  0  0  0  0  0  0  0  0  0  0
   -1.3764    1.2440   -0.2459 C   0  0  0  0  0  0  0  0  0  0  0  0
   -2.7713    1.3175   -0.1964 C   0  0  0  0  0  0  0  0  0  0  0  0
    0.7543   -0.0428   -0.0362 C   0  0  0  0  0  0  0  0  0  0  0  0
    1.3554   -0.4585   -1.2399 C   0  0  0  0  0  0  0  0  0  0  0  0
    2.7415   -0.5528   -1.3600 C   0  0  0  0  0  0  0  0  0  0  0  0
    3.5534   -0.2325   -0.2757 C   0  0  0  0  0  0  0  0  0  0  0  0
    2.9821    0.1822    0.9310 C   0  0  0  0  0  0  0  0  0  0  0  0
    4.0654    0.5596    2.2269 Cl  0  0  0  0  0  0  0  0  0  0  0  0
    1.5863    0.2792    1.0589 C   0  0  0  0  0  0  0  0  0  0  0  0
    0.8766    0.7900    2.5624 Cl  0  0  0  0  0  0  0  0  0  0  0  0
   -3.4500   -1.9117    0.6379 H   0  0  0  0  0  0  0  0  0  0  0  0
   -0.9886   -2.0459    0.5537 H   0  0  0  0  0  0  0  0  0  0  0  0
   -0.8072    2.1388   -0.4909 H   0  0  0  0  0  0  0  0  0  0  0  0
   -3.2690    2.2612   -0.4029 H   0  0  0  0  0  0  0  0  0  0  0  0
    0.7331   -0.7113   -2.0981 H   0  0  0  0  0  0  0  0  0  0  0  0
    3.1865   -0.8753   -2.2987 H   0  0  0  0  0  0  0  0  0  0  0  0
    4.6339   -0.3078   -0.3754 H   0  0  0  0  0  0  0  0  0  0  0  0
  1  2  1  0
  2  3  2  0
  3  4  1  0
  4  5  2  0
  5  6  1  0
  6  7  2  0
  5  8  1  0
  8  9  2  0
  9 10  1  0
 10 11  2  0
 11 12  1  0
 12 13  1  0
 12 14  2  0
 14 15  1  0
  7  2  1  0
 14  8  1  0
  3 16  1  0
  4 17  1  0
  6 18  1  0
  7 19  1  0
  9 20  1  0
 10 21  1  0
 11 22  1  0
M  END
>  <Energy>  (1) 
51.91066914723384

>  <Real charge>  (1) 
0

>  <Mult>  (1) 
1

$$$$
