mol_811 60
     RDKit          3D

 16 16  0  0  0  0  0  0  0  0999 V2000
    0.0559    1.2242    0.2016 C   0  0  0  0  0  0  0  0  0  0  0  0
   -1.2775    0.4949    0.0763 C   0  0  0  0  0  0  0  0  0  0  0  0
   -1.1129   -0.7981   -0.7119 C   0  0  0  0  0  0  0  0  0  0  0  0
   -0.1135   -1.6281   -0.1198 O   0  0  0  0  0  0  0  0  0  0  0  0
    1.1692   -1.0017   -0.1091 C   0  0  0  0  0  0  0  0  0  0  0  0
    1.1377    0.2795    0.7143 C   0  0  0  0  0  0  0  0  0  0  0  0
    0.3501    1.6160   -0.7799 H   0  0  0  0  0  0  0  0  0  0  0  0
   -0.0452    2.0827    0.8744 H   0  0  0  0  0  0  0  0  0  0  0  0
   -1.6414    0.2570    1.0835 H   0  0  0  0  0  0  0  0  0  0  0  0
   -2.0217    1.1407   -0.4011 H   0  0  0  0  0  0  0  0  0  0  0  0
   -2.0541   -1.3570   -0.7112 H   0  0  0  0  0  0  0  0  0  0  0  0
   -0.8478   -0.5972   -1.7566 H   0  0  0  0  0  0  0  0  0  0  0  0
    1.4877   -0.8055   -1.1397 H   0  0  0  0  0  0  0  0  0  0  0  0
    1.8818   -1.7080    0.3284 H   0  0  0  0  0  0  0  0  0  0  0  0
    0.9161    0.0289    1.7590 H   0  0  0  0  0  0  0  0  0  0  0  0
    2.1155    0.7718    0.6917 H   0  0  0  0  0  0  0  0  0  0  0  0
  1  2  1  0
  2  3  1  0
  3  4  1  0
  4  5  1  0
  5  6  1  0
  6  1  1  0
  1  7  1  0
  1  8  1  0
  2  9  1  0
  2 10  1  0
  3 11  1  0
  3 12  1  0
  5 13  1  0
  5 14  1  0
  6 15  1  0
  6 16  1  0
M  END
>  <Energy>  (1) 
3.7336169905254812

>  <Real charge>  (1) 
0

>  <Mult>  (1) 
1

$$$$
