mol_453 11
     RDKit          3D

 18 19  0  0  0  0  0  0  0  0999 V2000
   -2.2223    2.5518   -0.1061 Cl  0  0  0  0  0  0  0  0  0  0  0  0
   -1.5958    0.9360   -0.0484 C   0  0  0  0  0  0  0  0  0  0  0  0
   -2.5325   -0.1025   -0.0275 C   0  0  0  0  0  0  0  0  0  0  0  0
   -2.1058   -1.4247    0.0187 C   0  0  0  0  0  0  0  0  0  0  0  0
   -0.7420   -1.7107    0.0441 C   0  0  0  0  0  0  0  0  0  0  0  0
    0.2148   -0.6824    0.0238 C   0  0  0  0  0  0  0  0  0  0  0  0
    1.5850   -0.9917    0.0500 C   0  0  0  0  0  0  0  0  0  0  0  0
    2.5495    0.0149    0.0304 C   0  0  0  0  0  0  0  0  0  0  0  0
    2.1572    1.3461   -0.0156 C   0  0  0  0  0  0  0  0  0  0  0  0
    0.7993    1.6710   -0.0422 C   0  0  0  0  0  0  0  0  0  0  0  0
   -0.2032    0.6712   -0.0233 C   0  0  0  0  0  0  0  0  0  0  0  0
   -3.5971    0.1167   -0.0472 H   0  0  0  0  0  0  0  0  0  0  0  0
   -2.8327   -2.2328    0.0350 H   0  0  0  0  0  0  0  0  0  0  0  0
   -0.4278   -2.7524    0.0802 H   0  0  0  0  0  0  0  0  0  0  0  0
    1.9145   -2.0282    0.0861 H   0  0  0  0  0  0  0  0  0  0  0  0
    3.6053   -0.2423    0.0512 H   0  0  0  0  0  0  0  0  0  0  0  0
    2.9043    2.1355   -0.0311 H   0  0  0  0  0  0  0  0  0  0  0  0
    0.5294    2.7245   -0.0781 H   0  0  0  0  0  0  0  0  0  0  0  0
  1  2  1  0
  2  3  2  0
  3  4  1  0
  4  5  2  0
  5  6  1  0
  6  7  2  0
  7  8  1  0
  8  9  2  0
  9 10  1  0
 10 11  2  0
 11  2  1  0
 11  6  1  0
  3 12  1  0
  4 13  1  0
  5 14  1  0
  7 15  1  0
  8 16  1  0
  9 17  1  0
 10 18  1  0
M  END
>  <Energy>  (1) 
37.44202039473322

>  <Real charge>  (1) 
0

>  <Mult>  (1) 
1

$$$$
