mol_1020 72
     RDKit          3D

 28 29  0  0  0  0  0  0  0  0999 V2000
    1.3222   -3.1606    1.6336 Cl  0  0  0  0  0  0  0  0  0  0  0  0
   -0.0405   -2.4301    0.7193 C   0  0  0  0  0  0  0  0  0  0  0  0
   -1.5522   -3.1867    1.3302 Cl  0  0  0  0  0  0  0  0  0  0  0  0
   -0.0706   -0.8824    0.8659 C   0  0  0  0  0  0  0  0  0  0  0  0
   -1.2670   -0.2356    0.1574 C   0  0  0  0  0  0  0  0  0  0  0  0
   -2.1478    0.5805    0.8892 C   0  0  0  0  0  0  0  0  0  0  0  0
   -3.2431    1.1859    0.2683 C   0  0  0  0  0  0  0  0  0  0  0  0
   -3.4662    0.9857   -1.0906 C   0  0  0  0  0  0  0  0  0  0  0  0
   -4.8138    1.7319   -1.8562 Cl  0  0  0  0  0  0  0  0  0  0  0  0
   -2.6024    0.1865   -1.8344 C   0  0  0  0  0  0  0  0  0  0  0  0
   -1.5064   -0.4206   -1.2149 C   0  0  0  0  0  0  0  0  0  0  0  0
    1.2250   -0.1662    0.4621 C   0  0  0  0  0  0  0  0  0  0  0  0
    1.9760   -0.5374   -0.6661 C   0  0  0  0  0  0  0  0  0  0  0  0
    3.1417    0.1557   -1.0063 C   0  0  0  0  0  0  0  0  0  0  0  0
    3.5643    1.2306   -0.2292 C   0  0  0  0  0  0  0  0  0  0  0  0
    4.9978    2.0816   -0.6527 Cl  0  0  0  0  0  0  0  0  0  0  0  0
    2.8296    1.6221    0.8853 C   0  0  0  0  0  0  0  0  0  0  0  0
    1.6651    0.9301    1.2269 C   0  0  0  0  0  0  0  0  0  0  0  0
    0.0681   -2.7477   -0.3213 H   0  0  0  0  0  0  0  0  0  0  0  0
   -0.1954   -0.6995    1.9447 H   0  0  0  0  0  0  0  0  0  0  0  0
   -1.9917    0.7508    1.9529 H   0  0  0  0  0  0  0  0  0  0  0  0
   -3.9157    1.8108    0.8500 H   0  0  0  0  0  0  0  0  0  0  0  0
   -2.7742    0.0347   -2.8969 H   0  0  0  0  0  0  0  0  0  0  0  0
   -0.8444   -1.0303   -1.8246 H   0  0  0  0  0  0  0  0  0  0  0  0
    1.6728   -1.3648   -1.3021 H   0  0  0  0  0  0  0  0  0  0  0  0
    3.7136   -0.1467   -1.8800 H   0  0  0  0  0  0  0  0  0  0  0  0
    3.1542    2.4643    1.4907 H   0  0  0  0  0  0  0  0  0  0  0  0
    1.1010    1.2574    2.0987 H   0  0  0  0  0  0  0  0  0  0  0  0
  1  2  1  0
  2  3  1  0
  2  4  1  0
  4  5  1  0
  5  6  2  0
  6  7  1  0
  7  8  2  0
  8  9  1  0
  8 10  1  0
 10 11  2  0
  4 12  1  0
 12 13  2  0
 13 14  1  0
 14 15  2  0
 15 16  1  0
 15 17  1  0
 17 18  2  0
 11  5  1  0
 18 12  1  0
  2 19  1  0
  4 20  1  0
  6 21  1  0
  7 22  1  0
 10 23  1  0
 11 24  1  0
 13 25  1  0
 14 26  1  0
 17 27  1  0
 18 28  1  0
M  END
>  <Energy>  (1) 
74.25952268827018

>  <Real charge>  (1) 
0

>  <Mult>  (1) 
1

$$$$
