mol_1110 194
     RDKit          3D

 27 28  0  0  0  0  0  0  0  0999 V2000
   -1.5690    2.1855    0.0445 O   0  0  0  0  0  0  0  0  0  0  0  0
   -1.9659    0.9067   -0.2228 C   0  0  0  0  0  0  0  0  0  0  0  0
   -3.0065    0.7743   -1.1429 C   0  0  0  0  0  0  0  0  0  0  0  0
   -3.4726   -0.4912   -1.4946 C   0  0  0  0  0  0  0  0  0  0  0  0
   -2.8946   -1.6177   -0.9181 C   0  0  0  0  0  0  0  0  0  0  0  0
   -3.4605   -3.1846   -1.3490 Cl  0  0  0  0  0  0  0  0  0  0  0  0
   -1.8614   -1.4869    0.0119 C   0  0  0  0  0  0  0  0  0  0  0  0
   -1.3843   -0.2158    0.3822 C   0  0  0  0  0  0  0  0  0  0  0  0
   -0.2788   -0.1177    1.4086 C   0  0  0  0  0  0  0  0  0  0  0  0
    1.1067   -0.0534    0.8070 C   0  0  0  0  0  0  0  0  0  0  0  0
    1.7885   -1.2430    0.4995 C   0  0  0  0  0  0  0  0  0  0  0  0
    3.0638   -1.2013   -0.0649 C   0  0  0  0  0  0  0  0  0  0  0  0
    3.8842   -2.6686   -0.4303 Cl  0  0  0  0  0  0  0  0  0  0  0  0
    3.6779    0.0194   -0.3345 C   0  0  0  0  0  0  0  0  0  0  0  0
    3.0119    1.2096   -0.0405 C   0  0  0  0  0  0  0  0  0  0  0  0
    1.7362    1.1654    0.5236 C   0  0  0  0  0  0  0  0  0  0  0  0
    1.0722    2.3293    0.8012 O   0  0  0  0  0  0  0  0  0  0  0  0
   -0.6695    2.1669    0.4277 H   0  0  0  0  0  0  0  0  0  0  0  0
   -3.4476    1.6612   -1.5902 H   0  0  0  0  0  0  0  0  0  0  0  0
   -4.2793   -0.5885   -2.2153 H   0  0  0  0  0  0  0  0  0  0  0  0
   -1.4299   -2.3814    0.4554 H   0  0  0  0  0  0  0  0  0  0  0  0
   -0.3322   -0.9813    2.0865 H   0  0  0  0  0  0  0  0  0  0  0  0
   -0.4554    0.7387    2.0718 H   0  0  0  0  0  0  0  0  0  0  0  0
    1.3235   -2.2055    0.7001 H   0  0  0  0  0  0  0  0  0  0  0  0
    4.6704    0.0495   -0.7764 H   0  0  0  0  0  0  0  0  0  0  0  0
    3.4987    2.1543   -0.2641 H   0  0  0  0  0  0  0  0  0  0  0  0
    1.6734    3.0760    0.6236 H   0  0  0  0  0  0  0  0  0  0  0  0
  1  2  1  0
  2  3  2  0
  3  4  1  0
  4  5  2  0
  5  6  1  0
  5  7  1  0
  7  8  2  0
  8  9  1  0
  9 10  1  0
 10 11  2  0
 11 12  1  0
 12 13  1  0
 12 14  2  0
 14 15  1  0
 15 16  2  0
 16 17  1  0
  8  2  1  0
 16 10  1  0
  1 18  1  0
  3 19  1  0
  4 20  1  0
  7 21  1  0
  9 22  1  0
  9 23  1  0
 11 24  1  0
 14 25  1  0
 15 26  1  0
 17 27  1  0
M  END
>  <Energy>  (1) 
15.035524254214845

>  <Real charge>  (1) 
0

>  <Mult>  (1) 
1

$$$$
