mol_638 1
     RDKit          3D

 32 36  0  0  0  0  0  0  0  0999 V2000
   -4.7512   -0.1208    0.3320 C   0  0  0  0  0  0  0  0  0  0  0  0
   -4.3647    1.2087    0.2780 C   0  0  0  0  0  0  0  0  0  0  0  0
   -3.0091    1.5362    0.1772 C   0  0  0  0  0  0  0  0  0  0  0  0
   -1.9910    0.5489    0.1268 C   0  0  0  0  0  0  0  0  0  0  0  0
   -2.4155   -0.8013    0.1840 C   0  0  0  0  0  0  0  0  0  0  0  0
   -3.7816   -1.1184    0.2852 C   0  0  0  0  0  0  0  0  0  0  0  0
   -1.4727   -1.8335    0.1397 C   0  0  0  0  0  0  0  0  0  0  0  0
   -0.1039   -1.5701    0.0394 C   0  0  0  0  0  0  0  0  0  0  0  0
    0.8194   -2.6239   -0.0030 C   0  0  0  0  0  0  0  0  0  0  0  0
    2.1874   -2.3737   -0.1030 C   0  0  0  0  0  0  0  0  0  0  0  0
    2.6659   -1.0618   -0.1631 C   0  0  0  0  0  0  0  0  0  0  0  0
    4.0402   -0.7991   -0.2638 C   0  0  0  0  0  0  0  0  0  0  0  0
    4.5095    0.5111   -0.3232 C   0  0  0  0  0  0  0  0  0  0  0  0
    3.6099    1.5738   -0.2826 C   0  0  0  0  0  0  0  0  0  0  0  0
    2.2303    1.3384   -0.1821 C   0  0  0  0  0  0  0  0  0  0  0  0
    1.3200    2.3938   -0.1406 C   0  0  0  0  0  0  0  0  0  0  0  0
   -0.0526    2.1466   -0.0404 C   0  0  0  0  0  0  0  0  0  0  0  0
   -0.5844    0.8373    0.0234 C   0  0  0  0  0  0  0  0  0  0  0  0
    0.3477   -0.2338   -0.0193 C   0  0  0  0  0  0  0  0  0  0  0  0
    1.7459    0.0141   -0.1214 C   0  0  0  0  0  0  0  0  0  0  0  0
   -5.8025   -0.3837    0.4103 H   0  0  0  0  0  0  0  0  0  0  0  0
   -5.1123    1.9968    0.3136 H   0  0  0  0  0  0  0  0  0  0  0  0
   -2.7626    2.5932    0.1384 H   0  0  0  0  0  0  0  0  0  0  0  0
   -4.1038   -2.1570    0.3289 H   0  0  0  0  0  0  0  0  0  0  0  0
   -1.8120   -2.8673    0.1845 H   0  0  0  0  0  0  0  0  0  0  0  0
    0.4803   -3.6568    0.0417 H   0  0  0  0  0  0  0  0  0  0  0  0
    2.8752   -3.2156   -0.1335 H   0  0  0  0  0  0  0  0  0  0  0  0
    4.7570   -1.6165   -0.2968 H   0  0  0  0  0  0  0  0  0  0  0  0
    5.5762    0.7040   -0.4012 H   0  0  0  0  0  0  0  0  0  0  0  0
    3.9938    2.5904   -0.3301 H   0  0  0  0  0  0  0  0  0  0  0  0
    1.6653    3.4243   -0.1857 H   0  0  0  0  0  0  0  0  0  0  0  0
   -0.7040    3.0154   -0.0130 H   0  0  0  0  0  0  0  0  0  0  0  0
  1  2  2  0
  2  3  1  0
  3  4  2  0
  4  5  1  0
  5  6  2  0
  5  7  1  0
  7  8  2  0
  8  9  1  0
  9 10  2  0
 10 11  1  0
 11 12  2  0
 12 13  1  0
 13 14  2  0
 14 15  1  0
 15 16  2  0
 16 17  1  0
 17 18  2  0
 18 19  1  0
 19 20  2  0
  6  1  1  0
 18  4  1  0
 19  8  1  0
 20 11  1  0
 20 15  1  0
  1 21  1  0
  2 22  1  0
  3 23  1  0
  6 24  1  0
  7 25  1  0
  9 26  1  0
 10 27  1  0
 12 28  1  0
 13 29  1  0
 14 30  1  0
 16 31  1  0
 17 32  1  0
M  END
>  <Energy>  (1) 
79.51250338305353

>  <Real charge>  (1) 
0

>  <Mult>  (1) 
1

$$$$
