mol_1090 5
     RDKit          3D

 33 33  0  0  0  0  0  0  0  0999 V2000
   -3.6282    2.7895   -0.2872 C   0  0  0  0  0  0  0  0  0  0  0  0
   -2.2738    2.1464   -0.4566 C   0  0  0  0  0  0  0  0  0  0  0  0
   -1.3369    2.7783   -0.9306 O   0  0  0  0  0  0  0  0  0  0  0  0
   -2.2716    0.8214   -0.0564 N   0  0  0  0  0  0  0  0  0  0  0  0
   -1.1836   -0.0852   -0.0539 C   0  0  0  0  0  0  0  0  0  0  0  0
    0.1104    0.2963   -0.4252 C   0  0  0  0  0  0  0  0  0  0  0  0
    1.1672   -0.6199   -0.4139 C   0  0  0  0  0  0  0  0  0  0  0  0
    2.4726   -0.1463   -0.7478 N   0  0  0  0  0  0  0  0  0  0  0  0
    3.3914    0.5554    0.5097 S   0  0  0  0  0  6  0  0  0  0  0  0
    2.9398   -0.0006    1.7734 O   0  0  0  0  0  0  0  0  0  0  0  0
    4.7641    0.3156    0.0886 O   0  0  0  0  0  0  0  0  0  0  0  0
    3.0156    2.3780    0.4003 C   0  0  0  0  0  0  0  0  0  0  0  0
    3.0835    2.8364   -0.8823 F   0  0  0  0  0  0  0  0  0  0  0  0
    1.7716    2.6791    0.8660 F   0  0  0  0  0  0  0  0  0  0  0  0
    3.8963    3.1220    1.1298 F   0  0  0  0  0  0  0  0  0  0  0  0
    0.9575   -1.9460   -0.0216 C   0  0  0  0  0  0  0  0  0  0  0  0
    2.0720   -2.9525    0.0289 C   0  0  0  0  0  0  0  0  0  0  0  0
   -0.3361   -2.3295    0.3570 C   0  0  0  0  0  0  0  0  0  0  0  0
   -1.4095   -1.4182    0.3470 C   0  0  0  0  0  0  0  0  0  0  0  0
   -2.7660   -1.9154    0.7728 C   0  0  0  0  0  0  0  0  0  0  0  0
   -4.1116    2.4457    0.6319 H   0  0  0  0  0  0  0  0  0  0  0  0
   -4.2559    2.5441   -1.1478 H   0  0  0  0  0  0  0  0  0  0  0  0
   -3.5094    3.8749   -0.2215 H   0  0  0  0  0  0  0  0  0  0  0  0
   -3.1595    0.4547    0.2576 H   0  0  0  0  0  0  0  0  0  0  0  0
    0.3206    1.3110   -0.7433 H   0  0  0  0  0  0  0  0  0  0  0  0
    3.0624   -0.7867   -1.2806 H   0  0  0  0  0  0  0  0  0  0  0  0
    2.8085   -2.6714    0.7874 H   0  0  0  0  0  0  0  0  0  0  0  0
    2.5633   -3.0276   -0.9464 H   0  0  0  0  0  0  0  0  0  0  0  0
    1.7004   -3.9513    0.2816 H   0  0  0  0  0  0  0  0  0  0  0  0
   -0.5117   -3.3570    0.6744 H   0  0  0  0  0  0  0  0  0  0  0  0
   -2.7443   -2.9782    1.0370 H   0  0  0  0  0  0  0  0  0  0  0  0
   -3.4872   -1.7969   -0.0423 H   0  0  0  0  0  0  0  0  0  0  0  0
   -3.1119   -1.3662    1.6545 H   0  0  0  0  0  0  0  0  0  0  0  0
  1  2  1  0
  2  3  2  0
  2  4  1  0
  4  5  1  0
  5  6  2  0
  6  7  1  0
  7  8  1  0
  8  9  1  0
  9 10  2  0
  9 11  2  0
  9 12  1  0
 12 13  1  0
 12 14  1  0
 12 15  1  0
  7 16  2  0
 16 17  1  0
 16 18  1  0
 18 19  2  0
 19 20  1  0
 19  5  1  0
  1 21  1  0
  1 22  1  0
  1 23  1  0
  4 24  1  0
  6 25  1  0
  8 26  1  0
 17 27  1  0
 17 28  1  0
 17 29  1  0
 18 30  1  0
 20 31  1  0
 20 32  1  0
 20 33  1  0
M  END
>  <Energy>  (1) 
99.89021792258356

>  <Real charge>  (1) 
0

>  <Mult>  (1) 
1

$$$$
mol_1090 207
     RDKit          3D

 33 33  0  0  0  0  0  0  0  0999 V2000
   -4.5491    1.9413    0.4139 C   0  0  0  0  0  0  0  0  0  0  0  0
   -3.0814    1.6484    0.6045 C   0  0  0  0  0  0  0  0  0  0  0  0
   -2.3572    2.4411    1.1959 O   0  0  0  0  0  0  0  0  0  0  0  0
   -2.7212    0.4156    0.0891 N   0  0  0  0  0  0  0  0  0  0  0  0
   -1.4297   -0.1636    0.0546 C   0  0  0  0  0  0  0  0  0  0  0  0
   -0.2811    0.5514    0.4119 C   0  0  0  0  0  0  0  0  0  0  0  0
    0.9838   -0.0478    0.3773 C   0  0  0  0  0  0  0  0  0  0  0  0
    2.1291    0.7555    0.6972 N   0  0  0  0  0  0  0  0  0  0  0  0
    2.8392    1.5952   -0.6300 S   0  0  0  0  0  6  0  0  0  0  0  0
    2.5645    2.9946   -0.3483 O   0  0  0  0  0  0  0  0  0  0  0  0
    2.3747    1.0013   -1.8713 O   0  0  0  0  0  0  0  0  0  0  0  0
    4.6482    1.2484   -0.3995 C   0  0  0  0  0  0  0  0  0  0  0  0
    5.4233    1.9108   -1.3039 F   0  0  0  0  0  0  0  0  0  0  0  0
    5.0812    1.6242    0.8397 F   0  0  0  0  0  0  0  0  0  0  0  0
    4.9424   -0.0779   -0.5248 F   0  0  0  0  0  0  0  0  0  0  0  0
    1.1327   -1.3760   -0.0313 C   0  0  0  0  0  0  0  0  0  0  0  0
    2.4739   -2.0459   -0.1133 C   0  0  0  0  0  0  0  0  0  0  0  0
   -0.0131   -2.0852   -0.4167 C   0  0  0  0  0  0  0  0  0  0  0  0
   -1.2927   -1.4993   -0.3764 C   0  0  0  0  0  0  0  0  0  0  0  0
   -2.4705   -2.3360   -0.8016 C   0  0  0  0  0  0  0  0  0  0  0  0
   -4.9137    1.5264   -0.5303 H   0  0  0  0  0  0  0  0  0  0  0  0
   -4.7019    3.0241    0.3882 H   0  0  0  0  0  0  0  0  0  0  0  0
   -5.1142    1.5126    1.2455 H   0  0  0  0  0  0  0  0  0  0  0  0
   -3.4780   -0.1563   -0.2595 H   0  0  0  0  0  0  0  0  0  0  0  0
   -0.3449    1.5954    0.7004 H   0  0  0  0  0  0  0  0  0  0  0  0
    1.9236    1.4547    1.4182 H   0  0  0  0  0  0  0  0  0  0  0  0
    2.3732   -3.1359   -0.0736 H   0  0  0  0  0  0  0  0  0  0  0  0
    2.9705   -1.7807   -1.0513 H   0  0  0  0  0  0  0  0  0  0  0  0
    3.1109   -1.7576    0.7290 H   0  0  0  0  0  0  0  0  0  0  0  0
    0.0936   -3.1146   -0.7572 H   0  0  0  0  0  0  0  0  0  0  0  0
   -3.1899   -2.4246    0.0189 H   0  0  0  0  0  0  0  0  0  0  0  0
   -2.9585   -1.8886   -1.6734 H   0  0  0  0  0  0  0  0  0  0  0  0
   -2.1677   -3.3510   -1.0803 H   0  0  0  0  0  0  0  0  0  0  0  0
  1  2  1  0
  2  3  2  0
  2  4  1  0
  4  5  1  0
  5  6  2  0
  6  7  1  0
  7  8  1  0
  8  9  1  0
  9 10  2  0
  9 11  2  0
  9 12  1  0
 12 13  1  0
 12 14  1  0
 12 15  1  0
  7 16  2  0
 16 17  1  0
 16 18  1  0
 18 19  2  0
 19 20  1  0
 19  5  1  0
  1 21  1  0
  1 22  1  0
  1 23  1  0
  4 24  1  0
  6 25  1  0
  8 26  1  0
 17 27  1  0
 17 28  1  0
 17 29  1  0
 18 30  1  0
 20 31  1  0
 20 32  1  0
 20 33  1  0
M  END
>  <Energy>  (2) 
100.75521091744442

>  <Real charge>  (2) 
0

>  <Mult>  (2) 
1

$$$$
