mol_646 20
     RDKit          3D

 12 12  0  0  0  0  0  0  0  0999 V2000
    3.2665   -0.2698   -0.1182 Br  0  0  0  0  0  0  0  0  0  0  0  0
    1.3832   -0.1142   -0.0500 C   0  0  0  0  0  0  0  0  0  0  0  0
    0.7967    1.1504   -0.0241 C   0  0  0  0  0  0  0  0  0  0  0  0
   -0.5926    1.2558    0.0261 C   0  0  0  0  0  0  0  0  0  0  0  0
   -1.3994    2.9655    0.0616 Br  0  0  0  0  0  0  0  0  0  0  0  0
   -1.3939    0.1151    0.0504 C   0  0  0  0  0  0  0  0  0  0  0  0
   -0.7906   -1.1416    0.0239 C   0  0  0  0  0  0  0  0  0  0  0  0
   -1.8671   -2.6958    0.0565 Br  0  0  0  0  0  0  0  0  0  0  0  0
    0.5971   -1.2655   -0.0263 C   0  0  0  0  0  0  0  0  0  0  0  0
    1.4154    2.0437   -0.0428 H   0  0  0  0  0  0  0  0  0  0  0  0
   -2.4763    0.2045    0.0896 H   0  0  0  0  0  0  0  0  0  0  0  0
    1.0609   -2.2482   -0.0467 H   0  0  0  0  0  0  0  0  0  0  0  0
  1  2  1  0
  2  3  2  0
  3  4  1  0
  4  5  1  0
  4  6  2  0
  6  7  1  0
  7  8  1  0
  7  9  2  0
  9  2  1  0
  3 10  1  0
  6 11  1  0
  9 12  1  0
M  END
>  <Energy>  (1) 
1.429602160837975

>  <Real charge>  (1) 
0

>  <Mult>  (1) 
1

$$$$
