mol_1043 34
     RDKit          3D

 22 23  0  0  0  0  0  0  0  0999 V2000
    5.2816   -0.0116   -0.1599 Cl  0  0  0  0  0  0  0  0  0  0  0  0
    3.5552   -0.0424   -0.1161 C   0  0  0  0  0  0  0  0  0  0  0  0
    2.8867    1.1785   -0.0080 C   0  0  0  0  0  0  0  0  0  0  0  0
    1.4898    1.2122    0.0331 C   0  0  0  0  0  0  0  0  0  0  0  0
    0.7289    2.7594    0.1756 Cl  0  0  0  0  0  0  0  0  0  0  0  0
    0.7356    0.0253   -0.0345 C   0  0  0  0  0  0  0  0  0  0  0  0
    1.4265   -1.1959   -0.1400 C   0  0  0  0  0  0  0  0  0  0  0  0
    2.8250   -1.2326   -0.1818 C   0  0  0  0  0  0  0  0  0  0  0  0
    3.5827   -2.7791   -0.3129 Cl  0  0  0  0  0  0  0  0  0  0  0  0
   -0.7366    0.0176   -0.0015 C   0  0  0  0  0  0  0  0  0  0  0  0
   -1.3952   -0.1068    1.2356 C   0  0  0  0  0  0  0  0  0  0  0  0
   -2.7927   -0.1113    1.3121 C   0  0  0  0  0  0  0  0  0  0  0  0
   -3.5094   -0.2679    2.8756 Cl  0  0  0  0  0  0  0  0  0  0  0  0
   -3.5544    0.0070    0.1459 C   0  0  0  0  0  0  0  0  0  0  0  0
   -5.2815    0.0067    0.1640 Cl  0  0  0  0  0  0  0  0  0  0  0  0
   -2.9181    0.1281   -1.0910 C   0  0  0  0  0  0  0  0  0  0  0  0
   -1.5221    0.1327   -1.1642 C   0  0  0  0  0  0  0  0  0  0  0  0
   -0.8020    0.2783   -2.7305 Cl  0  0  0  0  0  0  0  0  0  0  0  0
    3.4537    2.1054    0.0438 H   0  0  0  0  0  0  0  0  0  0  0  0
    0.8669   -2.1289   -0.1972 H   0  0  0  0  0  0  0  0  0  0  0  0
   -0.8111   -0.1942    2.1511 H   0  0  0  0  0  0  0  0  0  0  0  0
   -3.5096    0.2196   -1.9993 H   0  0  0  0  0  0  0  0  0  0  0  0
  1  2  1  0
  2  3  2  0
  3  4  1  0
  4  5  1  0
  4  6  2  0
  6  7  1  0
  7  8  2  0
  8  9  1  0
  6 10  1  0
 10 11  2  0
 11 12  1  0
 12 13  1  0
 12 14  2  0
 14 15  1  0
 14 16  1  0
 16 17  2  0
 17 18  1  0
  8  2  1  0
 17 10  1  0
  3 19  1  0
  7 20  1  0
 11 21  1  0
 16 22  1  0
M  END
>  <Energy>  (1) 
44.4204588716859

>  <Real charge>  (1) 
0

>  <Mult>  (1) 
1

$$$$
