mol_362 141
     RDKit          3D

 19 19  0  0  0  0  0  0  0  0999 V2000
    3.4687   -0.0748    0.1144 C   0  0  0  0  0  0  0  0  0  0  0  0
    2.0680   -0.6337    0.1582 C   0  0  0  0  0  0  0  0  0  0  0  0
    1.8756   -1.8248    0.3727 O   0  0  0  0  0  0  0  0  0  0  0  0
    1.1110    0.3333   -0.0935 N   0  0  0  0  0  0  0  0  0  0  0  0
   -0.2884    0.1659   -0.1346 C   0  0  0  0  0  0  0  0  0  0  0  0
   -0.9372   -1.0512    0.0952 C   0  0  0  0  0  0  0  0  0  0  0  0
   -2.3325   -1.1323    0.0365 C   0  0  0  0  0  0  0  0  0  0  0  0
   -3.0769    0.0033   -0.2512 C   0  0  0  0  0  0  0  0  0  0  0  0
   -4.4125   -0.0760   -0.3069 F   0  0  0  0  0  0  0  0  0  0  0  0
   -2.4529    1.2215   -0.4819 C   0  0  0  0  0  0  0  0  0  0  0  0
   -1.0592    1.3026   -0.4233 C   0  0  0  0  0  0  0  0  0  0  0  0
    3.5032    0.9291    0.5474 H   0  0  0  0  0  0  0  0  0  0  0  0
    3.8126   -0.0406   -0.9227 H   0  0  0  0  0  0  0  0  0  0  0  0
    4.1346   -0.7178    0.6972 H   0  0  0  0  0  0  0  0  0  0  0  0
    1.4504    1.2689   -0.2778 H   0  0  0  0  0  0  0  0  0  0  0  0
   -0.3873   -1.9590    0.3237 H   0  0  0  0  0  0  0  0  0  0  0  0
   -2.8364   -2.0771    0.2146 H   0  0  0  0  0  0  0  0  0  0  0  0
   -3.0525    2.0979   -0.7051 H   0  0  0  0  0  0  0  0  0  0  0  0
   -0.5882    2.2648   -0.6067 H   0  0  0  0  0  0  0  0  0  0  0  0
  1  2  1  0
  2  3  2  0
  2  4  1  0
  4  5  1  0
  5  6  2  0
  6  7  1  0
  7  8  2  0
  8  9  1  0
  8 10  1  0
 10 11  2  0
 11  5  1  0
  1 12  1  0
  1 13  1  0
  1 14  1  0
  4 15  1  0
  6 16  1  0
  7 17  1  0
 10 18  1  0
 11 19  1  0
M  END
>  <Energy>  (1) 
-4.22303012613289

>  <Real charge>  (1) 
0

>  <Mult>  (1) 
1

$$$$
