mol_21 1
     RDKit          3D

 22 23  0  0  0  0  0  0  0  0999 V2000
    5.1560    0.9283    0.3470 Cl  0  0  0  0  0  0  0  0  0  0  0  0
    3.4664    0.6231    0.2400 C   0  0  0  0  0  0  0  0  0  0  0  0
    2.9680   -0.1344   -0.8167 C   0  0  0  0  0  0  0  0  0  0  0  0
    1.5964   -0.3842   -0.9061 C   0  0  0  0  0  0  0  0  0  0  0  0
    0.7064    0.1208    0.0602 C   0  0  0  0  0  0  0  0  0  0  0  0
    1.2372    0.8843    1.1197 C   0  0  0  0  0  0  0  0  0  0  0  0
    0.2188    1.5449    2.3540 Cl  0  0  0  0  0  0  0  0  0  0  0  0
    2.6091    1.1344    1.2095 C   0  0  0  0  0  0  0  0  0  0  0  0
   -0.7388   -0.1637   -0.0654 C   0  0  0  0  0  0  0  0  0  0  0  0
   -1.3042   -1.3093    0.5356 C   0  0  0  0  0  0  0  0  0  0  0  0
   -0.3413   -2.4403    1.4276 Cl  0  0  0  0  0  0  0  0  0  0  0  0
   -2.6713   -1.5819    0.4338 C   0  0  0  0  0  0  0  0  0  0  0  0
   -3.5049   -0.7179   -0.2712 C   0  0  0  0  0  0  0  0  0  0  0  0
   -2.9752    0.4215   -0.8788 C   0  0  0  0  0  0  0  0  0  0  0  0
   -4.0780    1.4389   -1.7399 Cl  0  0  0  0  0  0  0  0  0  0  0  0
   -1.6010    0.7028   -0.7810 C   0  0  0  0  0  0  0  0  0  0  0  0
   -0.9508    2.1250   -1.5486 Cl  0  0  0  0  0  0  0  0  0  0  0  0
    3.6392   -0.5330   -1.5736 H   0  0  0  0  0  0  0  0  0  0  0  0
    1.2232   -0.9782   -1.7389 H   0  0  0  0  0  0  0  0  0  0  0  0
    3.0056    1.7248    2.0311 H   0  0  0  0  0  0  0  0  0  0  0  0
   -3.0931   -2.4676    0.9049 H   0  0  0  0  0  0  0  0  0  0  0  0
   -4.5679   -0.9384   -0.3430 H   0  0  0  0  0  0  0  0  0  0  0  0
  1  2  1  0
  2  3  2  0
  3  4  1  0
  4  5  2  0
  5  6  1  0
  6  7  1  0
  6  8  2  0
  5  9  1  0
  9 10  2  0
 10 11  1  0
 10 12  1  0
 12 13  2  0
 13 14  1  0
 14 15  1  0
 14 16  2  0
 16 17  1  0
  8  2  1  0
 16  9  1  0
  3 18  1  0
  4 19  1  0
  8 20  1  0
 12 21  1  0
 13 22  1  0
M  END
>  <Energy>  (1) 
45.54162623979675

>  <Real charge>  (1) 
0

>  <Mult>  (1) 
1

$$$$
