mol_278 2
     RDKit          3D

  9  8  0  0  0  0  0  0  0  0999 V2000
   -0.7506    0.4356   -0.1507 C   0  0  0  0  0  0  0  0  0  0  0  0
    0.1203   -0.6785    0.3986 C   0  0  0  0  0  0  0  0  0  0  0  0
    1.8780   -0.2831    0.1863 S   0  0  0  0  0  0  0  0  0  0  0  0
   -0.5784    0.5899   -1.2213 H   0  0  0  0  0  0  0  0  0  0  0  0
   -0.5707    1.3817    0.3710 H   0  0  0  0  0  0  0  0  0  0  0  0
   -1.8076    0.1813   -0.0190 H   0  0  0  0  0  0  0  0  0  0  0  0
   -0.0935   -1.6164   -0.1226 H   0  0  0  0  0  0  0  0  0  0  0  0
   -0.0815   -0.8272    1.4636 H   0  0  0  0  0  0  0  0  0  0  0  0
    1.8840    0.8168    0.9536 H   0  0  0  0  0  0  0  0  0  0  0  0
  1  2  1  0
  2  3  1  0
  1  4  1  0
  1  5  1  0
  1  6  1  0
  2  7  1  0
  2  8  1  0
  3  9  1  0
M  END
>  <Energy>  (1) 
-0.9340989487612273

>  <Real charge>  (1) 
0

>  <Mult>  (1) 
1

$$$$
mol_278 47
     RDKit          3D

  9  8  0  0  0  0  0  0  0  0999 V2000
   -1.0897   -0.1734   -0.0531 C   0  0  0  0  0  0  0  0  0  0  0  0
    0.3305    0.3583   -0.0232 C   0  0  0  0  0  0  0  0  0  0  0  0
    1.5117   -0.9940    0.2324 S   0  0  0  0  0  0  0  0  0  0  0  0
   -1.2343   -0.8888   -0.8698 H   0  0  0  0  0  0  0  0  0  0  0  0
   -1.3561   -0.6627    0.8900 H   0  0  0  0  0  0  0  0  0  0  0  0
   -1.7930    0.6515   -0.2078 H   0  0  0  0  0  0  0  0  0  0  0  0
    0.5673    0.8598   -0.9664 H   0  0  0  0  0  0  0  0  0  0  0  0
    0.4461    1.0851    0.7865 H   0  0  0  0  0  0  0  0  0  0  0  0
    2.6176   -0.2358    0.2114 H   0  0  0  0  0  0  0  0  0  0  0  0
  1  2  1  0
  2  3  1  0
  1  4  1  0
  1  5  1  0
  1  6  1  0
  2  7  1  0
  2  8  1  0
  3  9  1  0
M  END
>  <Energy>  (2) 
-0.2523534316008069

>  <Real charge>  (2) 
0

>  <Mult>  (2) 
1

$$$$
