mol_680 311
     RDKit          3D

 14 13  0  0  0  0  0  0  0  0999 V2000
    1.8274    0.0015   -1.1190 O   0  0  0  0  0  0  0  0  0  0  0  0
    1.2235   -0.9432   -0.2362 C   0  0  0  0  0  0  0  0  0  0  0  0
    0.0717   -0.2903    0.5241 C   0  0  0  0  0  0  0  0  0  0  0  0
    0.5839    0.8548    1.2285 O   0  0  0  0  0  0  0  0  0  0  0  0
   -1.0483    0.1796   -0.4070 C   0  0  0  0  0  0  0  0  0  0  0  0
   -2.0679    0.7866    0.3940 O   0  0  0  0  0  0  0  0  0  0  0  0
    2.0084    0.7832   -0.5582 H   0  0  0  0  0  0  0  0  0  0  0  0
    0.8814   -1.8006   -0.8231 H   0  0  0  0  0  0  0  0  0  0  0  0
    1.9998   -1.2799    0.4585 H   0  0  0  0  0  0  0  0  0  0  0  0
   -0.3270   -0.9801    1.2759 H   0  0  0  0  0  0  0  0  0  0  0  0
   -0.2160    1.3188    1.5510 H   0  0  0  0  0  0  0  0  0  0  0  0
   -1.4851   -0.6587   -0.9578 H   0  0  0  0  0  0  0  0  0  0  0  0
   -0.6917    0.9392   -1.1097 H   0  0  0  0  0  0  0  0  0  0  0  0
   -2.7601    1.0890   -0.2210 H   0  0  0  0  0  0  0  0  0  0  0  0
  1  2  1  0
  2  3  1  0
  3  4  1  0
  3  5  1  0
  5  6  1  0
  1  7  1  0
  2  8  1  0
  2  9  1  0
  3 10  1  0
  4 11  1  0
  5 12  1  0
  5 13  1  0
  6 14  1  0
M  END
>  <Energy>  (1) 
34.31941212091934

>  <Real charge>  (1) 
0

>  <Mult>  (1) 
1

$$$$
mol_680 146
     RDKit          3D

 14 13  0  0  0  0  0  0  0  0999 V2000
   -2.5662   -0.1347    0.0270 O   0  0  0  0  0  0  0  0  0  0  0  0
   -1.2886   -0.7541   -0.1188 C   0  0  0  0  0  0  0  0  0  0  0  0
   -0.2032    0.3187   -0.1365 C   0  0  0  0  0  0  0  0  0  0  0  0
   -0.2828    1.0616    1.0936 O   0  0  0  0  0  0  0  0  0  0  0  0
    1.1945   -0.2829   -0.2669 C   0  0  0  0  0  0  0  0  0  0  0  0
    2.1480    0.7813   -0.2201 O   0  0  0  0  0  0  0  0  0  0  0  0
   -2.4420    0.5328    0.7321 H   0  0  0  0  0  0  0  0  0  0  0  0
   -1.1587   -1.4340    0.7296 H   0  0  0  0  0  0  0  0  0  0  0  0
   -1.2908   -1.3371   -1.0443 H   0  0  0  0  0  0  0  0  0  0  0  0
   -0.3908    1.0423   -0.9378 H   0  0  0  0  0  0  0  0  0  0  0  0
    0.5313    1.6059    1.1015 H   0  0  0  0  0  0  0  0  0  0  0  0
    1.3089   -0.8206   -1.2128 H   0  0  0  0  0  0  0  0  0  0  0  0
    1.4118   -0.9557    0.5689 H   0  0  0  0  0  0  0  0  0  0  0  0
    3.0286    0.3765   -0.3155 H   0  0  0  0  0  0  0  0  0  0  0  0
  1  2  1  0
  2  3  1  0
  3  4  1  0
  3  5  1  0
  5  6  1  0
  1  7  1  0
  2  8  1  0
  2  9  1  0
  3 10  1  0
  4 11  1  0
  5 12  1  0
  5 13  1  0
  6 14  1  0
M  END
>  <Energy>  (2) 
34.607848061849865

>  <Real charge>  (2) 
0

>  <Mult>  (2) 
1

$$$$
