mol_88 126
     RDKit          3D

 13 12  0  0  0  0  0  0  0  0999 V2000
   -1.6643    0.2794    0.5910 C   0  0  0  0  0  0  0  0  0  0  0  0
   -0.1449    0.3217    0.5938 C   0  0  0  0  0  0  0  0  0  0  0  0
    0.4206   -0.1627   -0.7332 C   0  0  0  0  0  0  0  0  0  0  0  0
    1.9159   -0.0959   -0.6633 N   0  0  0  0  0  4  0  0  0  0  0  0
    2.4495    0.9611   -1.0222 O   0  0  0  0  0  1  0  0  0  0  0  0
    2.5054   -1.1003   -0.2458 O   0  0  0  0  0  0  0  0  0  0  0  0
   -2.0279   -0.7403    0.4283 H   0  0  0  0  0  0  0  0  0  0  0  0
   -2.0729    0.9202   -0.1970 H   0  0  0  0  0  0  0  0  0  0  0  0
   -2.0554    0.6304    1.5511 H   0  0  0  0  0  0  0  0  0  0  0  0
    0.2306   -0.2988    1.4168 H   0  0  0  0  0  0  0  0  0  0  0  0
    0.1860    1.3477    0.7967 H   0  0  0  0  0  0  0  0  0  0  0  0
    0.1513   -1.2027   -0.9439 H   0  0  0  0  0  0  0  0  0  0  0  0
    0.1061    0.4661   -1.5724 H   0  0  0  0  0  0  0  0  0  0  0  0
  1  2  1  0
  2  3  1  0
  3  4  1  0
  4  5  1  0
  4  6  2  0
  1  7  1  0
  1  8  1  0
  1  9  1  0
  2 10  1  0
  2 11  1  0
  3 12  1  0
  3 13  1  0
M  CHG  2   4   1   5  -1
M  END
>  <Energy>  (1) 
0.7603632750919199

>  <Real charge>  (1) 
0

>  <Mult>  (1) 
1

$$$$
mol_88 94
     RDKit          3D

 13 12  0  0  0  0  0  0  0  0999 V2000
   -1.4987    0.3119   -0.1418 C   0  0  0  0  0  0  0  0  0  0  0  0
   -0.4480   -0.7505    0.1523 C   0  0  0  0  0  0  0  0  0  0  0  0
    0.8873   -0.1704    0.6014 C   0  0  0  0  0  0  0  0  0  0  0  0
    1.5584    0.5132   -0.5519 N   0  0  0  0  0  4  0  0  0  0  0  0
    2.1288   -0.2081   -1.3799 O   0  0  0  0  0  1  0  0  0  0  0  0
    1.4957    1.7482   -0.5893 O   0  0  0  0  0  0  0  0  0  0  0  0
   -1.2145    0.9316   -0.9975 H   0  0  0  0  0  0  0  0  0  0  0  0
   -1.6496    0.9650    0.7236 H   0  0  0  0  0  0  0  0  0  0  0  0
   -2.4564   -0.1628   -0.3782 H   0  0  0  0  0  0  0  0  0  0  0  0
   -0.8298   -1.3951    0.9530 H   0  0  0  0  0  0  0  0  0  0  0  0
   -0.3194   -1.3860   -0.7320 H   0  0  0  0  0  0  0  0  0  0  0  0
    0.7748    0.5617    1.4074 H   0  0  0  0  0  0  0  0  0  0  0  0
    1.5713   -0.9586    0.9328 H   0  0  0  0  0  0  0  0  0  0  0  0
  1  2  1  0
  2  3  1  0
  3  4  1  0
  4  5  1  0
  4  6  2  0
  1  7  1  0
  1  8  1  0
  1  9  1  0
  2 10  1  0
  2 11  1  0
  3 12  1  0
  3 13  1  0
M  CHG  2   4   1   5  -1
M  END
>  <Energy>  (2) 
1.0531581654880577

>  <Real charge>  (2) 
0

>  <Mult>  (2) 
1

$$$$
