mol_765 115
     RDKit          3D

 13 13  0  0  0  0  0  0  0  0999 V2000
   -2.1140    1.3983   -0.2108 O   0  0  0  0  0  0  0  0  0  0  0  0
   -0.9716    0.6559   -0.0977 C   0  0  0  0  0  0  0  0  0  0  0  0
    0.2371    1.3446   -0.0727 C   0  0  0  0  0  0  0  0  0  0  0  0
    1.4349    0.6340    0.0415 C   0  0  0  0  0  0  0  0  0  0  0  0
    2.9067    1.5380    0.0677 Cl  0  0  0  0  0  0  0  0  0  0  0  0
    1.4119   -0.7655    0.1300 C   0  0  0  0  0  0  0  0  0  0  0  0
    2.8549   -1.7058    0.2729 Cl  0  0  0  0  0  0  0  0  0  0  0  0
    0.1928   -1.4516    0.1042 C   0  0  0  0  0  0  0  0  0  0  0  0
   -0.9979   -0.7374   -0.0098 C   0  0  0  0  0  0  0  0  0  0  0  0
   -2.4977   -1.5852   -0.0413 Cl  0  0  0  0  0  0  0  0  0  0  0  0
   -2.8707    0.7815   -0.2145 H   0  0  0  0  0  0  0  0  0  0  0  0
    0.2392    2.4294   -0.1422 H   0  0  0  0  0  0  0  0  0  0  0  0
    0.1744   -2.5363    0.1728 H   0  0  0  0  0  0  0  0  0  0  0  0
  1  2  1  0
  2  3  2  0
  3  4  1  0
  4  5  1  0
  4  6  2  0
  6  7  1  0
  6  8  1  0
  8  9  2  0
  9 10  1  0
  9  2  1  0
  1 11  1  0
  3 12  1  0
  8 13  1  0
M  END
>  <Energy>  (1) 
15.867448450133807

>  <Real charge>  (1) 
0

>  <Mult>  (1) 
1

$$$$
