mol_796 48
     RDKit          3D

 32 35  0  0  0  0  0  0  0  0999 V2000
    5.6989    0.2427    0.1535 C   0  0  0  0  0  0  0  0  0  0  0  0
    5.2967   -1.0742   -0.0371 C   0  0  0  0  0  0  0  0  0  0  0  0
    3.9356   -1.3789   -0.1381 C   0  0  0  0  0  0  0  0  0  0  0  0
    2.9578   -0.3965   -0.0533 C   0  0  0  0  0  0  0  0  0  0  0  0
    1.6621   -0.7432   -0.1569 N   0  0  0  0  0  0  0  0  0  0  0  0
    0.7049    0.2237   -0.0731 C   0  0  0  0  0  0  0  0  0  0  0  0
    1.0433    1.5619    0.1174 C   0  0  0  0  0  0  0  0  0  0  0  0
    2.3840    1.9200    0.2245 C   0  0  0  0  0  0  0  0  0  0  0  0
    3.3719    0.9360    0.1399 C   0  0  0  0  0  0  0  0  0  0  0  0
    4.7391    1.2486    0.2423 C   0  0  0  0  0  0  0  0  0  0  0  0
   -0.7049   -0.2237   -0.1951 C   0  0  0  0  0  0  0  0  0  0  0  0
   -1.0433   -1.5619   -0.3856 C   0  0  0  0  0  0  0  0  0  0  0  0
   -2.3840   -1.9200   -0.4927 C   0  0  0  0  0  0  0  0  0  0  0  0
   -3.3719   -0.9360   -0.4081 C   0  0  0  0  0  0  0  0  0  0  0  0
   -4.7391   -1.2486   -0.5105 C   0  0  0  0  0  0  0  0  0  0  0  0
   -5.6989   -0.2427   -0.4217 C   0  0  0  0  0  0  0  0  0  0  0  0
   -5.2967    1.0742   -0.2311 C   0  0  0  0  0  0  0  0  0  0  0  0
   -3.9356    1.3789   -0.1301 C   0  0  0  0  0  0  0  0  0  0  0  0
   -2.9578    0.3965   -0.2149 C   0  0  0  0  0  0  0  0  0  0  0  0
   -1.6621    0.7432   -0.1113 N   0  0  0  0  0  0  0  0  0  0  0  0
    6.7551    0.4862    0.2329 H   0  0  0  0  0  0  0  0  0  0  0  0
    6.0360   -1.8678   -0.1079 H   0  0  0  0  0  0  0  0  0  0  0  0
    3.6295   -2.4115   -0.2872 H   0  0  0  0  0  0  0  0  0  0  0  0
    0.2719    2.3238    0.1826 H   0  0  0  0  0  0  0  0  0  0  0  0
    2.6456    2.9642    0.3731 H   0  0  0  0  0  0  0  0  0  0  0  0
    5.0605    2.2768    0.3914 H   0  0  0  0  0  0  0  0  0  0  0  0
   -0.2719   -2.3237   -0.4508 H   0  0  0  0  0  0  0  0  0  0  0  0
   -2.6456   -2.9641   -0.6413 H   0  0  0  0  0  0  0  0  0  0  0  0
   -5.0605   -2.2768   -0.6596 H   0  0  0  0  0  0  0  0  0  0  0  0
   -6.7551   -0.4863   -0.5010 H   0  0  0  0  0  0  0  0  0  0  0  0
   -6.0360    1.8678   -0.1603 H   0  0  0  0  0  0  0  0  0  0  0  0
   -3.6296    2.4115    0.0190 H   0  0  0  0  0  0  0  0  0  0  0  0
  1  2  2  0
  2  3  1  0
  3  4  2  0
  4  5  1  0
  5  6  2  0
  6  7  1  0
  7  8  2  0
  8  9  1  0
  9 10  2  0
  6 11  1  0
 11 12  2  0
 12 13  1  0
 13 14  2  0
 14 15  1  0
 15 16  2  0
 16 17  1  0
 17 18  2  0
 18 19  1  0
 19 20  2  0
  9  4  1  0
 10  1  1  0
 19 14  1  0
 20 11  1  0
  1 21  1  0
  2 22  1  0
  3 23  1  0
  7 24  1  0
  8 25  1  0
 10 26  1  0
 12 27  1  0
 13 28  1  0
 15 29  1  0
 16 30  1  0
 17 31  1  0
 18 32  1  0
M  END
>  <Energy>  (1) 
86.56031702246678

>  <Real charge>  (1) 
0

>  <Mult>  (1) 
1

$$$$
