mol_795 100
     RDKit          3D

 17 17  0  0  0  0  0  0  0  0999 V2000
    2.6805   -0.4467   -0.1595 C   0  0  0  0  0  0  0  0  0  0  0  0
    1.6767    0.6563    0.0519 C   0  0  0  0  0  0  0  0  0  0  0  0
    2.0389    1.8180    0.2285 O   0  0  0  0  0  0  0  0  0  0  0  0
    0.2212    0.3208    0.0448 C   0  0  0  0  0  0  0  0  0  0  0  0
   -0.2439   -0.9854   -0.1518 C   0  0  0  0  0  0  0  0  0  0  0  0
   -1.6170   -1.2485   -0.1499 C   0  0  0  0  0  0  0  0  0  0  0  0
   -2.5293   -0.2129    0.0476 C   0  0  0  0  0  0  0  0  0  0  0  0
   -2.0737    1.0891    0.2439 C   0  0  0  0  0  0  0  0  0  0  0  0
   -0.7032    1.3559    0.2427 C   0  0  0  0  0  0  0  0  0  0  0  0
    2.5975   -1.1925    0.6353 H   0  0  0  0  0  0  0  0  0  0  0  0
    3.6901   -0.0252   -0.1240 H   0  0  0  0  0  0  0  0  0  0  0  0
    2.5397   -0.9043   -1.1421 H   0  0  0  0  0  0  0  0  0  0  0  0
    0.4375   -1.8160   -0.3086 H   0  0  0  0  0  0  0  0  0  0  0  0
   -1.9761   -2.2636   -0.3028 H   0  0  0  0  0  0  0  0  0  0  0  0
   -3.5968   -0.4204    0.0487 H   0  0  0  0  0  0  0  0  0  0  0  0
   -2.7831    1.8984    0.3982 H   0  0  0  0  0  0  0  0  0  0  0  0
   -0.3590    2.3772    0.3971 H   0  0  0  0  0  0  0  0  0  0  0  0
  1  2  1  0
  2  3  2  0
  2  4  1  0
  4  5  2  0
  5  6  1  0
  6  7  2  0
  7  8  1  0
  8  9  2  0
  9  4  1  0
  1 10  1  0
  1 11  1  0
  1 12  1  0
  5 13  1  0
  6 14  1  0
  7 15  1  0
  8 16  1  0
  9 17  1  0
M  END
>  <Energy>  (1) 
35.268124204458104

>  <Real charge>  (1) 
0

>  <Mult>  (1) 
1

$$$$
