mol_938 84
     RDKit          3D

 19 18  0  0  0  0  0  0  0  0999 V2000
   -2.1324    0.5268   -0.7467 C   0  0  0  0  0  0  0  0  0  0  0  0
   -1.3416   -0.6426   -0.1740 C   0  0  0  0  0  0  0  0  0  0  0  0
    0.1761   -0.4311   -0.2718 C   0  0  0  0  0  0  0  0  0  0  0  0
    0.9260   -1.7007    0.1233 C   0  0  0  0  0  0  0  0  0  0  0  0
    0.6496    0.7093    0.6253 C   0  0  0  0  0  0  0  0  0  0  0  0
    0.1431    0.9365    1.7239 O   0  0  0  0  0  0  0  0  0  0  0  0
    1.8072    1.5322    0.1206 C   0  0  0  0  0  0  0  0  0  0  0  0
   -3.2053    0.3158   -0.6956 H   0  0  0  0  0  0  0  0  0  0  0  0
   -1.9457    1.4495   -0.1892 H   0  0  0  0  0  0  0  0  0  0  0  0
   -1.8716    0.6995   -1.7957 H   0  0  0  0  0  0  0  0  0  0  0  0
   -1.6194   -1.5480   -0.7276 H   0  0  0  0  0  0  0  0  0  0  0  0
   -1.6438   -0.8026    0.8680 H   0  0  0  0  0  0  0  0  0  0  0  0
    0.4283   -0.1779   -1.3089 H   0  0  0  0  0  0  0  0  0  0  0  0
    2.0091   -1.5588    0.0433 H   0  0  0  0  0  0  0  0  0  0  0  0
    0.7078   -1.9850    1.1588 H   0  0  0  0  0  0  0  0  0  0  0  0
    0.6478   -2.5369   -0.5264 H   0  0  0  0  0  0  0  0  0  0  0  0
    1.5381    1.9970   -0.8312 H   0  0  0  0  0  0  0  0  0  0  0  0
    2.0402    2.3206    0.8418 H   0  0  0  0  0  0  0  0  0  0  0  0
    2.6866    0.8964   -0.0045 H   0  0  0  0  0  0  0  0  0  0  0  0
  1  2  1  0
  2  3  1  0
  3  4  1  0
  3  5  1  0
  5  6  2  0
  5  7  1  0
  1  8  1  0
  1  9  1  0
  1 10  1  0
  2 11  1  0
  2 12  1  0
  3 13  1  0
  4 14  1  0
  4 15  1  0
  4 16  1  0
  7 17  1  0
  7 18  1  0
  7 19  1  0
M  END
>  <Energy>  (1) 
4.621532479882941

>  <Real charge>  (1) 
0

>  <Mult>  (1) 
1

$$$$
mol_938 114
     RDKit          3D

 19 18  0  0  0  0  0  0  0  0999 V2000
   -1.8536    0.7477    0.0338 C   0  0  0  0  0  0  0  0  0  0  0  0
   -0.7762    0.0411    0.8466 C   0  0  0  0  0  0  0  0  0  0  0  0
    0.2883   -0.6841    0.0099 C   0  0  0  0  0  0  0  0  0  0  0  0
   -0.3019   -1.8005   -0.8511 C   0  0  0  0  0  0  0  0  0  0  0  0
    1.1034    0.2949   -0.8361 C   0  0  0  0  0  0  0  0  0  0  0  0
    1.0032    0.3493   -2.0621 O   0  0  0  0  0  0  0  0  0  0  0  0
    2.0345    1.2267   -0.1013 C   0  0  0  0  0  0  0  0  0  0  0  0
   -2.5435    1.2697    0.7051 H   0  0  0  0  0  0  0  0  0  0  0  0
   -1.4223    1.4905   -0.6439 H   0  0  0  0  0  0  0  0  0  0  0  0
   -2.4420    0.0389   -0.5558 H   0  0  0  0  0  0  0  0  0  0  0  0
   -0.2933    0.7806    1.4963 H   0  0  0  0  0  0  0  0  0  0  0  0
   -1.2609   -0.6826    1.5137 H   0  0  0  0  0  0  0  0  0  0  0  0
    0.9978   -1.1586    0.7007 H   0  0  0  0  0  0  0  0  0  0  0  0
   -0.8711   -2.5066   -0.2379 H   0  0  0  0  0  0  0  0  0  0  0  0
    0.4961   -2.3588   -1.3534 H   0  0  0  0  0  0  0  0  0  0  0  0
   -0.9636   -1.4124   -1.6322 H   0  0  0  0  0  0  0  0  0  0  0  0
    1.4586    2.0036    0.4061 H   0  0  0  0  0  0  0  0  0  0  0  0
    2.7173    1.6976   -0.8143 H   0  0  0  0  0  0  0  0  0  0  0  0
    2.6292    0.6630    0.6217 H   0  0  0  0  0  0  0  0  0  0  0  0
  1  2  1  0
  2  3  1  0
  3  4  1  0
  3  5  1  0
  5  6  2  0
  5  7  1  0
  1  8  1  0
  1  9  1  0
  1 10  1  0
  2 11  1  0
  2 12  1  0
  3 13  1  0
  4 14  1  0
  4 15  1  0
  4 16  1  0
  7 17  1  0
  7 18  1  0
  7 19  1  0
M  END
>  <Energy>  (2) 
5.2146590545629685

>  <Real charge>  (2) 
0

>  <Mult>  (2) 
1

$$$$
mol_938 23
     RDKit          3D

 19 18  0  0  0  0  0  0  0  0999 V2000
   -2.1312   -0.7463   -0.6180 C   0  0  0  0  0  0  0  0  0  0  0  0
   -0.6335   -0.5615   -0.8123 C   0  0  0  0  0  0  0  0  0  0  0  0
    0.0220    0.2896    0.2833 C   0  0  0  0  0  0  0  0  0  0  0  0
   -0.4851    1.7308    0.3001 C   0  0  0  0  0  0  0  0  0  0  0  0
    1.5359    0.2709    0.0876 C   0  0  0  0  0  0  0  0  0  0  0  0
    2.1190    1.1020   -0.6088 O   0  0  0  0  0  0  0  0  0  0  0  0
    2.2950   -0.8445    0.7607 C   0  0  0  0  0  0  0  0  0  0  0  0
   -2.5262   -1.4306   -1.3758 H   0  0  0  0  0  0  0  0  0  0  0  0
   -2.6688    0.2013   -0.7164 H   0  0  0  0  0  0  0  0  0  0  0  0
   -2.3501   -1.1696    0.3673 H   0  0  0  0  0  0  0  0  0  0  0  0
   -0.4491   -0.1144   -1.7973 H   0  0  0  0  0  0  0  0  0  0  0  0
   -0.1650   -1.5531   -0.8361 H   0  0  0  0  0  0  0  0  0  0  0  0
   -0.1858   -0.1489    1.2674 H   0  0  0  0  0  0  0  0  0  0  0  0
   -1.5360    1.7779    0.6013 H   0  0  0  0  0  0  0  0  0  0  0  0
    0.0895    2.3368    1.0094 H   0  0  0  0  0  0  0  0  0  0  0  0
   -0.3915    2.1994   -0.6858 H   0  0  0  0  0  0  0  0  0  0  0  0
    2.1295   -0.8011    1.8400 H   0  0  0  0  0  0  0  0  0  0  0  0
    3.3652   -0.7298    0.5666 H   0  0  0  0  0  0  0  0  0  0  0  0
    1.9663   -1.8087    0.3666 H   0  0  0  0  0  0  0  0  0  0  0  0
  1  2  1  0
  2  3  1  0
  3  4  1  0
  3  5  1  0
  5  6  2  0
  5  7  1  0
  1  8  1  0
  1  9  1  0
  1 10  1  0
  2 11  1  0
  2 12  1  0
  3 13  1  0
  4 14  1  0
  4 15  1  0
  4 16  1  0
  7 17  1  0
  7 18  1  0
  7 19  1  0
M  END
>  <Energy>  (3) 
5.449126205840595

>  <Real charge>  (3) 
0

>  <Mult>  (3) 
1

$$$$
mol_938 292
     RDKit          3D

 19 18  0  0  0  0  0  0  0  0999 V2000
    1.9034   -1.0941   -0.2880 C   0  0  0  0  0  0  0  0  0  0  0  0
    1.1959    0.0546    0.4187 C   0  0  0  0  0  0  0  0  0  0  0  0
    0.0509    0.6467   -0.4123 C   0  0  0  0  0  0  0  0  0  0  0  0
   -0.5253    1.8935    0.2541 C   0  0  0  0  0  0  0  0  0  0  0  0
   -1.0610   -0.3622   -0.6895 C   0  0  0  0  0  0  0  0  0  0  0  0
   -1.3680   -0.6555   -1.8470 O   0  0  0  0  0  0  0  0  0  0  0  0
   -1.7775   -0.9944    0.4776 C   0  0  0  0  0  0  0  0  0  0  0  0
    2.7450   -1.4462    0.3171 H   0  0  0  0  0  0  0  0  0  0  0  0
    2.2953   -0.7751   -1.2591 H   0  0  0  0  0  0  0  0  0  0  0  0
    1.2301   -1.9415   -0.4490 H   0  0  0  0  0  0  0  0  0  0  0  0
    1.9352    0.8388    0.6235 H   0  0  0  0  0  0  0  0  0  0  0  0
    0.8318   -0.2933    1.3922 H   0  0  0  0  0  0  0  0  0  0  0  0
    0.4518    0.9496   -1.3890 H   0  0  0  0  0  0  0  0  0  0  0  0
   -1.3876    2.2734   -0.3044 H   0  0  0  0  0  0  0  0  0  0  0  0
    0.2261    2.6891    0.2987 H   0  0  0  0  0  0  0  0  0  0  0  0
   -0.8555    1.6895    1.2781 H   0  0  0  0  0  0  0  0  0  0  0  0
   -2.5823   -1.6345    0.1037 H   0  0  0  0  0  0  0  0  0  0  0  0
   -1.0865   -1.6128    1.0540 H   0  0  0  0  0  0  0  0  0  0  0  0
   -2.2217   -0.2256    1.1128 H   0  0  0  0  0  0  0  0  0  0  0  0
  1  2  1  0
  2  3  1  0
  3  4  1  0
  3  5  1  0
  5  6  2  0
  5  7  1  0
  1  8  1  0
  1  9  1  0
  1 10  1  0
  2 11  1  0
  2 12  1  0
  3 13  1  0
  4 14  1  0
  4 15  1  0
  4 16  1  0
  7 17  1  0
  7 18  1  0
  7 19  1  0
M  END
>  <Energy>  (4) 
5.485197076697733

>  <Real charge>  (4) 
0

>  <Mult>  (4) 
1

$$$$
mol_938 43
     RDKit          3D

 19 18  0  0  0  0  0  0  0  0999 V2000
    2.3723   -0.6149   -0.4324 C   0  0  0  0  0  0  0  0  0  0  0  0
    1.1803   -0.5746    0.5127 C   0  0  0  0  0  0  0  0  0  0  0  0
   -0.0835    0.0194   -0.1287 C   0  0  0  0  0  0  0  0  0  0  0  0
    0.0549    1.5070   -0.4385 C   0  0  0  0  0  0  0  0  0  0  0  0
   -1.2852   -0.1839    0.7911 C   0  0  0  0  0  0  0  0  0  0  0  0
   -1.1852   -0.1643    2.0179 O   0  0  0  0  0  0  0  0  0  0  0  0
   -2.6254   -0.3746    0.1269 C   0  0  0  0  0  0  0  0  0  0  0  0
    2.1287   -1.1603   -1.3495 H   0  0  0  0  0  0  0  0  0  0  0  0
    2.7031    0.3915   -0.7046 H   0  0  0  0  0  0  0  0  0  0  0  0
    3.2152   -1.1217    0.0485 H   0  0  0  0  0  0  0  0  0  0  0  0
    0.9689   -1.5986    0.8463 H   0  0  0  0  0  0  0  0  0  0  0  0
    1.4538   -0.0080    1.4116 H   0  0  0  0  0  0  0  0  0  0  0  0
   -0.2880   -0.5265   -1.0582 H   0  0  0  0  0  0  0  0  0  0  0  0
    0.3042    2.0772    0.4632 H   0  0  0  0  0  0  0  0  0  0  0  0
   -0.8808    1.9161   -0.8344 H   0  0  0  0  0  0  0  0  0  0  0  0
    0.8338    1.6884   -1.1850 H   0  0  0  0  0  0  0  0  0  0  0  0
   -2.5896   -1.2504   -0.5258 H   0  0  0  0  0  0  0  0  0  0  0  0
   -3.3929   -0.5380    0.8887 H   0  0  0  0  0  0  0  0  0  0  0  0
   -2.8846    0.5160   -0.4498 H   0  0  0  0  0  0  0  0  0  0  0  0
  1  2  1  0
  2  3  1  0
  3  4  1  0
  3  5  1  0
  5  6  2  0
  5  7  1  0
  1  8  1  0
  1  9  1  0
  1 10  1  0
  2 11  1  0
  2 12  1  0
  3 13  1  0
  4 14  1  0
  4 15  1  0
  4 16  1  0
  7 17  1  0
  7 18  1  0
  7 19  1  0
M  END
>  <Energy>  (5) 
5.487431871318892

>  <Real charge>  (5) 
0

>  <Mult>  (5) 
1

$$$$
