mol_890 248
     RDKit          3D

 22 22  0  0  0  0  0  0  0  0999 V2000
   -0.3847   -0.0746   -2.5015 O   0  0  0  0  0  0  0  0  0  0  0  0
   -0.7249   -0.0502   -1.3215 C   0  0  0  0  0  0  0  0  0  0  0  0
   -1.9838   -0.4452   -0.9607 N   0  0  0  0  0  0  0  0  0  0  0  0
   -2.3100   -0.9144    0.2732 C   0  0  0  0  0  0  0  0  0  0  0  0
   -3.2858   -1.6372    0.4455 O   0  0  0  0  0  0  0  0  0  0  0  0
   -1.4592   -0.6169    1.2914 N   0  0  0  0  0  0  0  0  0  0  0  0
   -0.1573   -0.2359    1.1149 C   0  0  0  0  0  0  0  0  0  0  0  0
    0.6659   -0.4184    2.0081 O   0  0  0  0  0  0  0  0  0  0  0  0
    0.1534    0.4683   -0.1952 C   0  0  0  0  0  0  0  0  0  0  0  0
   -0.2129    1.9538    0.0034 C   0  0  0  0  0  0  0  0  0  0  0  0
    1.6539    0.3704   -0.5522 C   0  0  0  0  0  0  0  0  0  0  0  0
    2.1599   -1.0526   -0.7786 C   0  0  0  0  0  0  0  0  0  0  0  0
   -2.5578   -0.7996   -1.7143 H   0  0  0  0  0  0  0  0  0  0  0  0
   -1.6550   -1.0951    2.1609 H   0  0  0  0  0  0  0  0  0  0  0  0
    0.3744    2.4010    0.8139 H   0  0  0  0  0  0  0  0  0  0  0  0
   -0.0270    2.5323   -0.9091 H   0  0  0  0  0  0  0  0  0  0  0  0
   -1.2710    2.0849    0.2599 H   0  0  0  0  0  0  0  0  0  0  0  0
    1.8591    0.9523   -1.4602 H   0  0  0  0  0  0  0  0  0  0  0  0
    2.2566    0.8222    0.2463 H   0  0  0  0  0  0  0  0  0  0  0  0
    1.6393   -1.5415   -1.6068 H   0  0  0  0  0  0  0  0  0  0  0  0
    3.2265   -1.0310   -1.0254 H   0  0  0  0  0  0  0  0  0  0  0  0
    2.0403   -1.6727    0.1142 H   0  0  0  0  0  0  0  0  0  0  0  0
  1  2  2  0
  2  3  1  0
  3  4  1  0
  4  5  2  0
  4  6  1  0
  6  7  1  0
  7  8  2  0
  7  9  1  0
  9 10  1  0
  9 11  1  0
 11 12  1  0
  9  2  1  0
  3 13  1  0
  6 14  1  0
 10 15  1  0
 10 16  1  0
 10 17  1  0
 11 18  1  0
 11 19  1  0
 12 20  1  0
 12 21  1  0
 12 22  1  0
M  END
>  <Energy>  (1) 
-129.3741874206773

>  <Real charge>  (1) 
0

>  <Mult>  (1) 
1

$$$$
mol_890 302
     RDKit          3D

 22 22  0  0  0  0  0  0  0  0999 V2000
   -0.8728   -0.4788    2.5061 O   0  0  0  0  0  0  0  0  0  0  0  0
   -0.9104   -0.4798    1.2789 C   0  0  0  0  0  0  0  0  0  0  0  0
   -1.8530   -1.2171    0.6140 N   0  0  0  0  0  0  0  0  0  0  0  0
   -2.3610   -0.8529   -0.5948 C   0  0  0  0  0  0  0  0  0  0  0  0
   -3.4863   -1.1939   -0.9441 O   0  0  0  0  0  0  0  0  0  0  0  0
   -1.6074   -0.0122   -1.3542 N   0  0  0  0  0  0  0  0  0  0  0  0
   -0.6672    0.8221   -0.8134 C   0  0  0  0  0  0  0  0  0  0  0  0
   -0.4493    1.9220   -1.3132 O   0  0  0  0  0  0  0  0  0  0  0  0
    0.0777    0.2662    0.3916 C   0  0  0  0  0  0  0  0  0  0  0  0
    0.7248    1.4038    1.1922 C   0  0  0  0  0  0  0  0  0  0  0  0
    1.1306   -0.7691   -0.0862 C   0  0  0  0  0  0  0  0  0  0  0  0
    2.2804   -0.1906   -0.9034 C   0  0  0  0  0  0  0  0  0  0  0  0
   -2.5121   -1.7006    1.2103 H   0  0  0  0  0  0  0  0  0  0  0  0
   -2.1013    0.3696   -2.1506 H   0  0  0  0  0  0  0  0  0  0  0  0
    1.3687    2.0341    0.5698 H   0  0  0  0  0  0  0  0  0  0  0  0
    1.3297    1.0158    2.0195 H   0  0  0  0  0  0  0  0  0  0  0  0
   -0.0402    2.0600    1.6249 H   0  0  0  0  0  0  0  0  0  0  0  0
    0.6499   -1.5504   -0.6895 H   0  0  0  0  0  0  0  0  0  0  0  0
    1.5548   -1.2854    0.7853 H   0  0  0  0  0  0  0  0  0  0  0  0
    1.9179    0.3367   -1.7907 H   0  0  0  0  0  0  0  0  0  0  0  0
    2.9380   -0.9982   -1.2417 H   0  0  0  0  0  0  0  0  0  0  0  0
    2.8885    0.4987   -0.3107 H   0  0  0  0  0  0  0  0  0  0  0  0
  1  2  2  0
  2  3  1  0
  3  4  1  0
  4  5  2  0
  4  6  1  0
  6  7  1  0
  7  8  2  0
  7  9  1  0
  9 10  1  0
  9 11  1  0
 11 12  1  0
  9  2  1  0
  3 13  1  0
  6 14  1  0
 10 15  1  0
 10 16  1  0
 10 17  1  0
 11 18  1  0
 11 19  1  0
 12 20  1  0
 12 21  1  0
 12 22  1  0
M  END
>  <Energy>  (2) 
-128.8888918375126

>  <Real charge>  (2) 
0

>  <Mult>  (2) 
1

$$$$
