mol_18 4
     RDKit          3D

 13 13  0  0  0  0  0  0  0  0999 V2000
    3.6376   -0.3650   -0.2050 N   0  0  0  0  0  0  0  0  0  0  0  0
    2.4845   -0.2493   -0.1400 C   0  0  0  0  0  0  0  0  0  0  0  0
    1.0603   -0.1064   -0.0598 C   0  0  0  0  0  0  0  0  0  0  0  0
    0.2440   -1.2403    0.0168 C   0  0  0  0  0  0  0  0  0  0  0  0
   -1.1429   -1.0995    0.0949 C   0  0  0  0  0  0  0  0  0  0  0  0
   -1.7160    0.1722    0.0967 C   0  0  0  0  0  0  0  0  0  0  0  0
   -0.9058    1.3051    0.0205 C   0  0  0  0  0  0  0  0  0  0  0  0
    0.4814    1.1675   -0.0577 C   0  0  0  0  0  0  0  0  0  0  0  0
    0.6811   -2.2370    0.0161 H   0  0  0  0  0  0  0  0  0  0  0  0
   -1.7769   -1.9810    0.1544 H   0  0  0  0  0  0  0  0  0  0  0  0
   -2.7965    0.2806    0.1576 H   0  0  0  0  0  0  0  0  0  0  0  0
   -1.3553    2.2953    0.0221 H   0  0  0  0  0  0  0  0  0  0  0  0
    1.1046    2.0578   -0.1168 H   0  0  0  0  0  0  0  0  0  0  0  0
  1  2  3  0
  2  3  1  0
  3  4  2  0
  4  5  1  0
  5  6  2  0
  6  7  1  0
  7  8  2  0
  8  3  1  0
  4  9  1  0
  5 10  1  0
  6 11  1  0
  7 12  1  0
  8 13  1  0
M  END
>  <Energy>  (1) 
29.497996803115704

>  <Real charge>  (1) 
0

>  <Mult>  (1) 
1

$$$$
