mol_290 24
     RDKit          3D

 27 29  0  0  0  0  0  0  0  0999 V2000
    4.4507    0.1053   -0.2380 C   0  0  0  0  0  0  0  0  0  0  0  0
    2.9575    0.1922   -0.1376 C   0  0  0  0  0  0  0  0  0  0  0  0
    2.3449    1.3253    0.3886 C   0  0  0  0  0  0  0  0  0  0  0  0
    0.9518    1.3851    0.5077 C   0  0  0  0  0  0  0  0  0  0  0  0
    0.1108    0.3138    0.1172 C   0  0  0  0  0  0  0  0  0  0  0  0
    0.7534   -0.8383   -0.4022 C   0  0  0  0  0  0  0  0  0  0  0  0
   -0.0080   -1.9391   -0.8037 C   0  0  0  0  0  0  0  0  0  0  0  0
   -1.3964   -1.9228   -0.7034 C   0  0  0  0  0  0  0  0  0  0  0  0
   -2.0648   -0.8050   -0.1982 C   0  0  0  0  0  0  0  0  0  0  0  0
   -3.4675   -0.8199   -0.1102 C   0  0  0  0  0  0  0  0  0  0  0  0
   -4.1684    0.2749    0.3879 C   0  0  0  0  0  0  0  0  0  0  0  0
   -3.4728    1.3993    0.8044 C   0  0  0  0  0  0  0  0  0  0  0  0
   -2.0772    1.4261    0.7219 C   0  0  0  0  0  0  0  0  0  0  0  0
   -1.3268    0.3318    0.2208 C   0  0  0  0  0  0  0  0  0  0  0  0
    2.1547   -0.8872   -0.5173 C   0  0  0  0  0  0  0  0  0  0  0  0
    4.8624   -0.3340    0.6758 H   0  0  0  0  0  0  0  0  0  0  0  0
    4.7491   -0.5101   -1.0932 H   0  0  0  0  0  0  0  0  0  0  0  0
    4.8918    1.0972   -0.3830 H   0  0  0  0  0  0  0  0  0  0  0  0
    2.9417    2.1754    0.7114 H   0  0  0  0  0  0  0  0  0  0  0  0
    0.5333    2.2982    0.9208 H   0  0  0  0  0  0  0  0  0  0  0  0
    0.4743   -2.8288   -1.2029 H   0  0  0  0  0  0  0  0  0  0  0  0
   -1.9521   -2.8002   -1.0274 H   0  0  0  0  0  0  0  0  0  0  0  0
   -4.0297   -1.6941   -0.4327 H   0  0  0  0  0  0  0  0  0  0  0  0
   -5.2527    0.2473    0.4492 H   0  0  0  0  0  0  0  0  0  0  0  0
   -4.0096    2.2599    1.1948 H   0  0  0  0  0  0  0  0  0  0  0  0
   -1.5817    2.3311    1.0609 H   0  0  0  0  0  0  0  0  0  0  0  0
    2.6312   -1.7834   -0.9118 H   0  0  0  0  0  0  0  0  0  0  0  0
  1  2  1  0
  2  3  2  0
  3  4  1  0
  4  5  2  0
  5  6  1  0
  6  7  1  0
  7  8  2  0
  8  9  1  0
  9 10  2  0
 10 11  1  0
 11 12  2  0
 12 13  1  0
 13 14  2  0
  6 15  2  0
 15  2  1  0
 14  5  1  0
 14  9  1  0
  1 16  1  0
  1 17  1  0
  1 18  1  0
  3 19  1  0
  4 20  1  0
  7 21  1  0
  8 22  1  0
 10 23  1  0
 11 24  1  0
 12 25  1  0
 13 26  1  0
 15 27  1  0
M  END
>  <Energy>  (1) 
54.83173827014822

>  <Real charge>  (1) 
0

>  <Mult>  (1) 
1

$$$$
