mol_582 8
     RDKit          3D

  5  4  0  0  0  0  0  0  0  0999 V2000
   -0.1838   -0.0044    0.0047 C   0  0  0  0  0  0  0  0  0  0  0  0
    1.7500    0.0417   -0.0452 Br  0  0  0  0  0  0  0  0  0  0  0  0
   -0.5314   -0.5701   -0.8609 H   0  0  0  0  0  0  0  0  0  0  0  0
   -0.5479    1.0234   -0.0317 H   0  0  0  0  0  0  0  0  0  0  0  0
   -0.4869   -0.4906    0.9331 H   0  0  0  0  0  0  0  0  0  0  0  0
  1  2  1  0
  1  3  1  0
  1  4  1  0
  1  5  1  0
M  END
>  <Energy>  (1) 
0.2538320987179683

>  <Real charge>  (1) 
0

>  <Mult>  (1) 
1

$$$$
