mol_238 319
     RDKit          3D

 22 21  0  0  0  0  0  0  0  0999 V2000
    3.7932    0.3953    0.0738 C   0  0  0  0  0  0  0  0  0  0  0  0
    2.5309   -0.3763    0.4222 C   0  0  0  0  0  0  0  0  0  0  0  0
    1.2815    0.3346   -0.0896 C   0  0  0  0  0  0  0  0  0  0  0  0
    0.0023   -0.4168    0.2456 C   0  0  0  0  0  0  0  0  0  0  0  0
    0.0083   -1.4801    0.8638 O   0  0  0  0  0  0  0  0  0  0  0  0
   -1.2847    0.2355   -0.2351 C   0  0  0  0  0  0  0  0  0  0  0  0
   -2.5256   -0.5714    0.1354 C   0  0  0  0  0  0  0  0  0  0  0  0
   -3.7960    0.1025   -0.3565 C   0  0  0  0  0  0  0  0  0  0  0  0
    3.8993    0.5051   -1.0102 H   0  0  0  0  0  0  0  0  0  0  0  0
    4.6757   -0.1317    0.4498 H   0  0  0  0  0  0  0  0  0  0  0  0
    3.7782    1.3945    0.5209 H   0  0  0  0  0  0  0  0  0  0  0  0
    2.4716   -0.5005    1.5101 H   0  0  0  0  0  0  0  0  0  0  0  0
    2.5918   -1.3828   -0.0088 H   0  0  0  0  0  0  0  0  0  0  0  0
    1.2116    1.3330    0.3562 H   0  0  0  0  0  0  0  0  0  0  0  0
    1.3331    0.4413   -1.1789 H   0  0  0  0  0  0  0  0  0  0  0  0
   -1.2211    0.3427   -1.3237 H   0  0  0  0  0  0  0  0  0  0  0  0
   -1.3425    1.2344    0.2114 H   0  0  0  0  0  0  0  0  0  0  0  0
   -2.4599   -1.5777   -0.2952 H   0  0  0  0  0  0  0  0  0  0  0  0
   -2.5801   -0.6955    1.2236 H   0  0  0  0  0  0  0  0  0  0  0  0
   -3.9083    1.0979    0.0850 H   0  0  0  0  0  0  0  0  0  0  0  0
   -3.7872    0.2085   -1.4460 H   0  0  0  0  0  0  0  0  0  0  0  0
   -4.6722   -0.4925   -0.0803 H   0  0  0  0  0  0  0  0  0  0  0  0
  1  2  1  0
  2  3  1  0
  3  4  1  0
  4  5  2  0
  4  6  1  0
  6  7  1  0
  7  8  1  0
  1  9  1  0
  1 10  1  0
  1 11  1  0
  2 12  1  0
  2 13  1  0
  3 14  1  0
  3 15  1  0
  6 16  1  0
  6 17  1  0
  7 18  1  0
  7 19  1  0
  8 20  1  0
  8 21  1  0
  8 22  1  0
M  END
>  <Energy>  (1) 
-1.2175376126492632

>  <Real charge>  (1) 
0

>  <Mult>  (1) 
1

$$$$
mol_238 284
     RDKit          3D

 22 21  0  0  0  0  0  0  0  0999 V2000
   -3.1283    0.3083   -0.9030 C   0  0  0  0  0  0  0  0  0  0  0  0
   -2.7012    0.1065    0.5442 C   0  0  0  0  0  0  0  0  0  0  0  0
   -1.2707    0.5728    0.8040 C   0  0  0  0  0  0  0  0  0  0  0  0
   -0.2069   -0.3441    0.2171 C   0  0  0  0  0  0  0  0  0  0  0  0
   -0.4734   -1.4580   -0.2310 O   0  0  0  0  0  0  0  0  0  0  0  0
    1.2146    0.1956    0.2544 C   0  0  0  0  0  0  0  0  0  0  0  0
    2.2272   -0.7762   -0.3442 C   0  0  0  0  0  0  0  0  0  0  0  0
    3.6372   -0.2107   -0.2976 C   0  0  0  0  0  0  0  0  0  0  0  0
   -4.1681   -0.0070   -1.0358 H   0  0  0  0  0  0  0  0  0  0  0  0
   -3.0564    1.3626   -1.1889 H   0  0  0  0  0  0  0  0  0  0  0  0
   -2.5097   -0.2761   -1.5905 H   0  0  0  0  0  0  0  0  0  0  0  0
   -2.8187   -0.9487    0.8159 H   0  0  0  0  0  0  0  0  0  0  0  0
   -3.3795    0.6797    1.1873 H   0  0  0  0  0  0  0  0  0  0  0  0
   -1.0970    0.6101    1.8855 H   0  0  0  0  0  0  0  0  0  0  0  0
   -1.1261    1.5809    0.4003 H   0  0  0  0  0  0  0  0  0  0  0  0
    1.4681    0.4023    1.3001 H   0  0  0  0  0  0  0  0  0  0  0  0
    1.2309    1.1392   -0.3022 H   0  0  0  0  0  0  0  0  0  0  0  0
    2.2009   -1.7272    0.2010 H   0  0  0  0  0  0  0  0  0  0  0  0
    1.9614   -1.0000   -1.3843 H   0  0  0  0  0  0  0  0  0  0  0  0
    3.9454   -0.0098    0.7335 H   0  0  0  0  0  0  0  0  0  0  0  0
    4.3460   -0.9232   -0.7311 H   0  0  0  0  0  0  0  0  0  0  0  0
    3.7044    0.7231   -0.8649 H   0  0  0  0  0  0  0  0  0  0  0  0
  1  2  1  0
  2  3  1  0
  3  4  1  0
  4  5  2  0
  4  6  1  0
  6  7  1  0
  7  8  1  0
  1  9  1  0
  1 10  1  0
  1 11  1  0
  2 12  1  0
  2 13  1  0
  3 14  1  0
  3 15  1  0
  6 16  1  0
  6 17  1  0
  7 18  1  0
  7 19  1  0
  8 20  1  0
  8 21  1  0
  8 22  1  0
M  END
>  <Energy>  (2) 
-1.1439668020503122

>  <Real charge>  (2) 
0

>  <Mult>  (2) 
1

$$$$
mol_238 325
     RDKit          3D

 22 21  0  0  0  0  0  0  0  0999 V2000
    2.4791   -1.4976   -0.0218 C   0  0  0  0  0  0  0  0  0  0  0  0
    2.5064   -0.0449   -0.4768 C   0  0  0  0  0  0  0  0  0  0  0  0
    1.4347    0.8028    0.2044 C   0  0  0  0  0  0  0  0  0  0  0  0
    0.0220    0.5193   -0.2864 C   0  0  0  0  0  0  0  0  0  0  0  0
   -0.1995   -0.1415   -1.2997 O   0  0  0  0  0  0  0  0  0  0  0  0
   -1.0948    1.1675    0.5195 C   0  0  0  0  0  0  0  0  0  0  0  0
   -2.4911    0.6757    0.1457 C   0  0  0  0  0  0  0  0  0  0  0  0
   -2.7605   -0.7420    0.6309 C   0  0  0  0  0  0  0  0  0  0  0  0
    2.6232   -1.5713    1.0609 H   0  0  0  0  0  0  0  0  0  0  0  0
    3.2829   -2.0593   -0.5082 H   0  0  0  0  0  0  0  0  0  0  0  0
    1.5308   -1.9808   -0.2749 H   0  0  0  0  0  0  0  0  0  0  0  0
    2.3981   -0.0016   -1.5665 H   0  0  0  0  0  0  0  0  0  0  0  0
    3.4908    0.3739   -0.2364 H   0  0  0  0  0  0  0  0  0  0  0  0
    1.6342    1.8620    0.0063 H   0  0  0  0  0  0  0  0  0  0  0  0
    1.4685    0.6461    1.2881 H   0  0  0  0  0  0  0  0  0  0  0  0
   -1.0332    2.2466    0.3386 H   0  0  0  0  0  0  0  0  0  0  0  0
   -0.9093    0.9889    1.5843 H   0  0  0  0  0  0  0  0  0  0  0  0
   -2.6403    0.7249   -0.9390 H   0  0  0  0  0  0  0  0  0  0  0  0
   -3.2321    1.3433    0.6010 H   0  0  0  0  0  0  0  0  0  0  0  0
   -3.7813   -1.0406    0.3717 H   0  0  0  0  0  0  0  0  0  0  0  0
   -2.6548   -0.8102    1.7183 H   0  0  0  0  0  0  0  0  0  0  0  0
   -2.0740   -1.4610    0.1741 H   0  0  0  0  0  0  0  0  0  0  0  0
  1  2  1  0
  2  3  1  0
  3  4  1  0
  4  5  2  0
  4  6  1  0
  6  7  1  0
  7  8  1  0
  1  9  1  0
  1 10  1  0
  1 11  1  0
  2 12  1  0
  2 13  1  0
  3 14  1  0
  3 15  1  0
  6 16  1  0
  6 17  1  0
  7 18  1  0
  7 19  1  0
  8 20  1  0
  8 21  1  0
  8 22  1  0
M  END
>  <Energy>  (3) 
-1.1167482980234609

>  <Real charge>  (3) 
0

>  <Mult>  (3) 
1

$$$$
mol_238 207
     RDKit          3D

 22 21  0  0  0  0  0  0  0  0999 V2000
    2.8419    0.4224   -1.4262 C   0  0  0  0  0  0  0  0  0  0  0  0
    2.5564   -0.0594   -0.0105 C   0  0  0  0  0  0  0  0  0  0  0  0
    1.2432   -0.8314    0.0927 C   0  0  0  0  0  0  0  0  0  0  0  0
    0.0022    0.0453    0.0011 C   0  0  0  0  0  0  0  0  0  0  0  0
    0.0616    1.2731    0.0301 O   0  0  0  0  0  0  0  0  0  0  0  0
   -1.3173   -0.7024   -0.1289 C   0  0  0  0  0  0  0  0  0  0  0  0
   -2.5502    0.1870    0.0136 C   0  0  0  0  0  0  0  0  0  0  0  0
   -2.7912    0.6268    1.4510 C   0  0  0  0  0  0  0  0  0  0  0  0
    2.8863   -0.4195   -2.1245 H   0  0  0  0  0  0  0  0  0  0  0  0
    2.0745    1.1185   -1.7772 H   0  0  0  0  0  0  0  0  0  0  0  0
    3.8060    0.9399   -1.4601 H   0  0  0  0  0  0  0  0  0  0  0  0
    3.3759   -0.7175    0.3016 H   0  0  0  0  0  0  0  0  0  0  0  0
    2.5557    0.7968    0.6736 H   0  0  0  0  0  0  0  0  0  0  0  0
    1.2026   -1.3390    1.0632 H   0  0  0  0  0  0  0  0  0  0  0  0
    1.1922   -1.5929   -0.6934 H   0  0  0  0  0  0  0  0  0  0  0  0
   -1.3418   -1.5014    0.6202 H   0  0  0  0  0  0  0  0  0  0  0  0
   -1.3237   -1.1651   -1.1224 H   0  0  0  0  0  0  0  0  0  0  0  0
   -2.4654    1.0705   -0.6295 H   0  0  0  0  0  0  0  0  0  0  0  0
   -3.4287   -0.3736   -0.3274 H   0  0  0  0  0  0  0  0  0  0  0  0
   -3.7009    1.2326    1.5114 H   0  0  0  0  0  0  0  0  0  0  0  0
   -1.9610    1.2283    1.8327 H   0  0  0  0  0  0  0  0  0  0  0  0
   -2.9181   -0.2389    2.1090 H   0  0  0  0  0  0  0  0  0  0  0  0
  1  2  1  0
  2  3  1  0
  3  4  1  0
  4  5  2  0
  4  6  1  0
  6  7  1  0
  7  8  1  0
  1  9  1  0
  1 10  1  0
  1 11  1  0
  2 12  1  0
  2 13  1  0
  3 14  1  0
  3 15  1  0
  6 16  1  0
  6 17  1  0
  7 18  1  0
  7 19  1  0
  8 20  1  0
  8 21  1  0
  8 22  1  0
M  END
>  <Energy>  (4) 
-1.0527512072712277

>  <Real charge>  (4) 
0

>  <Mult>  (4) 
1

$$$$
mol_238 36
     RDKit          3D

 22 21  0  0  0  0  0  0  0  0999 V2000
   -2.3214    0.9836    0.6151 C   0  0  0  0  0  0  0  0  0  0  0  0
   -2.3893   -0.3563   -0.1046 C   0  0  0  0  0  0  0  0  0  0  0  0
   -1.0737   -1.1272   -0.0279 C   0  0  0  0  0  0  0  0  0  0  0  0
    0.0341   -0.5230   -0.8766 C   0  0  0  0  0  0  0  0  0  0  0  0
   -0.1917    0.2620   -1.7976 O   0  0  0  0  0  0  0  0  0  0  0  0
    1.4521   -0.9570   -0.5601 C   0  0  0  0  0  0  0  0  0  0  0  0
    2.0397   -0.1993    0.6253 C   0  0  0  0  0  0  0  0  0  0  0  0
    2.2828    1.2719    0.3206 C   0  0  0  0  0  0  0  0  0  0  0  0
   -1.5784    1.6462    0.1613 H   0  0  0  0  0  0  0  0  0  0  0  0
   -3.2929    1.4857    0.5680 H   0  0  0  0  0  0  0  0  0  0  0  0
   -2.0615    0.8488    1.6700 H   0  0  0  0  0  0  0  0  0  0  0  0
   -2.6823   -0.1950   -1.1483 H   0  0  0  0  0  0  0  0  0  0  0  0
   -3.1782   -0.9599    0.3594 H   0  0  0  0  0  0  0  0  0  0  0  0
   -1.2300   -2.1497   -0.3899 H   0  0  0  0  0  0  0  0  0  0  0  0
   -0.7404   -1.1860    1.0132 H   0  0  0  0  0  0  0  0  0  0  0  0
    2.0683   -0.8177   -1.4559 H   0  0  0  0  0  0  0  0  0  0  0  0
    1.4384   -2.0332   -0.3533 H   0  0  0  0  0  0  0  0  0  0  0  0
    2.9953   -0.6617    0.8990 H   0  0  0  0  0  0  0  0  0  0  0  0
    1.3836   -0.2794    1.4990 H   0  0  0  0  0  0  0  0  0  0  0  0
    1.3450    1.7972    0.1157 H   0  0  0  0  0  0  0  0  0  0  0  0
    2.9414    1.3900   -0.5458 H   0  0  0  0  0  0  0  0  0  0  0  0
    2.7591    1.7598    1.1770 H   0  0  0  0  0  0  0  0  0  0  0  0
  1  2  1  0
  2  3  1  0
  3  4  1  0
  4  5  2  0
  4  6  1  0
  6  7  1  0
  7  8  1  0
  1  9  1  0
  1 10  1  0
  1 11  1  0
  2 12  1  0
  2 13  1  0
  3 14  1  0
  3 15  1  0
  6 16  1  0
  6 17  1  0
  7 18  1  0
  7 19  1  0
  8 20  1  0
  8 21  1  0
  8 22  1  0
M  END
>  <Energy>  (5) 
-0.6609768470196569

>  <Real charge>  (5) 
0

>  <Mult>  (5) 
1

$$$$
mol_238 197
     RDKit          3D

 22 21  0  0  0  0  0  0  0  0999 V2000
    2.9269   -0.1583    0.9417 C   0  0  0  0  0  0  0  0  0  0  0  0
    2.2537   -0.4635   -0.3885 C   0  0  0  0  0  0  0  0  0  0  0  0
    1.2078    0.5777   -0.7701 C   0  0  0  0  0  0  0  0  0  0  0  0
    0.0112    0.5828    0.1630 C   0  0  0  0  0  0  0  0  0  0  0  0
   -0.1756    1.5212    0.9377 O   0  0  0  0  0  0  0  0  0  0  0  0
   -0.9057   -0.6297    0.1157 C   0  0  0  0  0  0  0  0  0  0  0  0
   -2.2852   -0.3746    0.7187 C   0  0  0  0  0  0  0  0  0  0  0  0
   -3.1416    0.5385   -0.1475 C   0  0  0  0  0  0  0  0  0  0  0  0
    2.2096   -0.1868    1.7677 H   0  0  0  0  0  0  0  0  0  0  0  0
    3.7055   -0.8995    1.1485 H   0  0  0  0  0  0  0  0  0  0  0  0
    3.3963    0.8305    0.9264 H   0  0  0  0  0  0  0  0  0  0  0  0
    3.0215   -0.4932   -1.1705 H   0  0  0  0  0  0  0  0  0  0  0  0
    1.8058   -1.4624   -0.3447 H   0  0  0  0  0  0  0  0  0  0  0  0
    0.8403    0.3906   -1.7854 H   0  0  0  0  0  0  0  0  0  0  0  0
    1.6493    1.5812   -0.7757 H   0  0  0  0  0  0  0  0  0  0  0  0
   -1.0100   -0.9545   -0.9253 H   0  0  0  0  0  0  0  0  0  0  0  0
   -0.4122   -1.4317    0.6755 H   0  0  0  0  0  0  0  0  0  0  0  0
   -2.8035   -1.3344    0.8288 H   0  0  0  0  0  0  0  0  0  0  0  0
   -2.1938    0.0560    1.7224 H   0  0  0  0  0  0  0  0  0  0  0  0
   -3.2770    0.1153   -1.1480 H   0  0  0  0  0  0  0  0  0  0  0  0
   -2.6917    1.5303   -0.2525 H   0  0  0  0  0  0  0  0  0  0  0  0
   -4.1314    0.6645    0.3027 H   0  0  0  0  0  0  0  0  0  0  0  0
  1  2  1  0
  2  3  1  0
  3  4  1  0
  4  5  2  0
  4  6  1  0
  6  7  1  0
  7  8  1  0
  1  9  1  0
  1 10  1  0
  1 11  1  0
  2 12  1  0
  2 13  1  0
  3 14  1  0
  3 15  1  0
  6 16  1  0
  6 17  1  0
  7 18  1  0
  7 19  1  0
  8 20  1  0
  8 21  1  0
  8 22  1  0
M  END
>  <Energy>  (6) 
-0.6487422034830723

>  <Real charge>  (6) 
0

>  <Mult>  (6) 
1

$$$$
mol_238 255
     RDKit          3D

 22 21  0  0  0  0  0  0  0  0999 V2000
   -2.8655   -0.0795    1.0157 C   0  0  0  0  0  0  0  0  0  0  0  0
   -2.2558   -0.5954   -0.2797 C   0  0  0  0  0  0  0  0  0  0  0  0
   -1.4390    0.4650   -1.0089 C   0  0  0  0  0  0  0  0  0  0  0  0
   -0.1922    0.8768   -0.2481 C   0  0  0  0  0  0  0  0  0  0  0  0
   -0.1374    1.9663    0.3227 O   0  0  0  0  0  0  0  0  0  0  0  0
    0.9550   -0.1201   -0.2163 C   0  0  0  0  0  0  0  0  0  0  0  0
    2.2208    0.4700    0.3996 C   0  0  0  0  0  0  0  0  0  0  0  0
    3.3619   -0.5340    0.3977 C   0  0  0  0  0  0  0  0  0  0  0  0
   -3.4961    0.7961    0.8315 H   0  0  0  0  0  0  0  0  0  0  0  0
   -3.4879   -0.8547    1.4738 H   0  0  0  0  0  0  0  0  0  0  0  0
   -2.0916    0.1984    1.7379 H   0  0  0  0  0  0  0  0  0  0  0  0
   -1.6406   -1.4753   -0.0623 H   0  0  0  0  0  0  0  0  0  0  0  0
   -3.0660   -0.9290   -0.9388 H   0  0  0  0  0  0  0  0  0  0  0  0
   -1.1269    0.0929   -1.9912 H   0  0  0  0  0  0  0  0  0  0  0  0
   -2.0458    1.3597   -1.1916 H   0  0  0  0  0  0  0  0  0  0  0  0
    1.1587   -0.4346   -1.2459 H   0  0  0  0  0  0  0  0  0  0  0  0
    0.6347   -0.9943    0.3595 H   0  0  0  0  0  0  0  0  0  0  0  0
    2.0223    0.7886    1.4300 H   0  0  0  0  0  0  0  0  0  0  0  0
    2.5247    1.3653   -0.1559 H   0  0  0  0  0  0  0  0  0  0  0  0
    3.6093   -0.8448   -0.6224 H   0  0  0  0  0  0  0  0  0  0  0  0
    4.2575   -0.0909    0.8443 H   0  0  0  0  0  0  0  0  0  0  0  0
    3.1002   -1.4263    0.9753 H   0  0  0  0  0  0  0  0  0  0  0  0
  1  2  1  0
  2  3  1  0
  3  4  1  0
  4  5  2  0
  4  6  1  0
  6  7  1  0
  7  8  1  0
  1  9  1  0
  1 10  1  0
  1 11  1  0
  2 12  1  0
  2 13  1  0
  3 14  1  0
  3 15  1  0
  6 16  1  0
  6 17  1  0
  7 18  1  0
  7 19  1  0
  8 20  1  0
  8 21  1  0
  8 22  1  0
M  END
>  <Energy>  (7) 
-0.6290855081446912

>  <Real charge>  (7) 
0

>  <Mult>  (7) 
1

$$$$
mol_238 128
     RDKit          3D

 22 21  0  0  0  0  0  0  0  0999 V2000
    3.5563    0.4465   -0.2508 C   0  0  0  0  0  0  0  0  0  0  0  0
    2.1510    0.0944   -0.7098 C   0  0  0  0  0  0  0  0  0  0  0  0
    1.3582   -0.5899    0.3959 C   0  0  0  0  0  0  0  0  0  0  0  0
   -0.0219   -0.9810   -0.0930 C   0  0  0  0  0  0  0  0  0  0  0  0
   -0.2348   -2.1090   -0.5372 O   0  0  0  0  0  0  0  0  0  0  0  0
   -1.0961    0.0928   -0.0330 C   0  0  0  0  0  0  0  0  0  0  0  0
   -2.4552   -0.4149   -0.5067 C   0  0  0  0  0  0  0  0  0  0  0  0
   -3.5147    0.6721   -0.4275 C   0  0  0  0  0  0  0  0  0  0  0  0
    4.1101   -0.4514    0.0416 H   0  0  0  0  0  0  0  0  0  0  0  0
    3.5298    1.1284    0.6051 H   0  0  0  0  0  0  0  0  0  0  0  0
    4.1075    0.9371   -1.0592 H   0  0  0  0  0  0  0  0  0  0  0  0
    1.6381    1.0075   -1.0331 H   0  0  0  0  0  0  0  0  0  0  0  0
    2.2085   -0.5601   -1.5879 H   0  0  0  0  0  0  0  0  0  0  0  0
    1.8686   -1.4994    0.7338 H   0  0  0  0  0  0  0  0  0  0  0  0
    1.2538    0.0598    1.2718 H   0  0  0  0  0  0  0  0  0  0  0  0
   -0.7752    0.9333   -0.6572 H   0  0  0  0  0  0  0  0  0  0  0  0
   -1.1705    0.4368    1.0046 H   0  0  0  0  0  0  0  0  0  0  0  0
   -2.7684   -1.2707    0.1032 H   0  0  0  0  0  0  0  0  0  0  0  0
   -2.3813   -0.7728   -1.5406 H   0  0  0  0  0  0  0  0  0  0  0  0
   -3.2466    1.5276   -1.0557 H   0  0  0  0  0  0  0  0  0  0  0  0
   -3.6377    1.0258    0.6011 H   0  0  0  0  0  0  0  0  0  0  0  0
   -4.4795    0.2869   -0.7719 H   0  0  0  0  0  0  0  0  0  0  0  0
  1  2  1  0
  2  3  1  0
  3  4  1  0
  4  5  2  0
  4  6  1  0
  6  7  1  0
  7  8  1  0
  1  9  1  0
  1 10  1  0
  1 11  1  0
  2 12  1  0
  2 13  1  0
  3 14  1  0
  3 15  1  0
  6 16  1  0
  6 17  1  0
  7 18  1  0
  7 19  1  0
  8 20  1  0
  8 21  1  0
  8 22  1  0
M  END
>  <Energy>  (8) 
-0.4635954196368647

>  <Real charge>  (8) 
0

>  <Mult>  (8) 
1

$$$$
mol_238 217
     RDKit          3D

 22 21  0  0  0  0  0  0  0  0999 V2000
   -2.6652    1.1581    0.2321 C   0  0  0  0  0  0  0  0  0  0  0  0
   -2.5842   -0.3594    0.1390 C   0  0  0  0  0  0  0  0  0  0  0  0
   -1.1518   -0.8762    0.2484 C   0  0  0  0  0  0  0  0  0  0  0  0
   -0.3070   -0.6023   -0.9861 C   0  0  0  0  0  0  0  0  0  0  0  0
   -0.7931   -0.2467   -2.0593 O   0  0  0  0  0  0  0  0  0  0  0  0
    1.1883   -0.7973   -0.8413 C   0  0  0  0  0  0  0  0  0  0  0  0
    1.8485    0.4775   -0.3326 C   0  0  0  0  0  0  0  0  0  0  0  0
    3.3542    0.3138   -0.2100 C   0  0  0  0  0  0  0  0  0  0  0  0
   -2.1250    1.6407   -0.5876 H   0  0  0  0  0  0  0  0  0  0  0  0
   -3.7095    1.4828    0.1838 H   0  0  0  0  0  0  0  0  0  0  0  0
   -2.2440    1.5152    1.1774 H   0  0  0  0  0  0  0  0  0  0  0  0
   -3.0446   -0.6926   -0.7981 H   0  0  0  0  0  0  0  0  0  0  0  0
   -3.1760   -0.7882    0.9564 H   0  0  0  0  0  0  0  0  0  0  0  0
   -1.1707   -1.9634    0.3855 H   0  0  0  0  0  0  0  0  0  0  0  0
   -0.6619   -0.4329    1.1217 H   0  0  0  0  0  0  0  0  0  0  0  0
    1.3725   -1.6396   -0.1651 H   0  0  0  0  0  0  0  0  0  0  0  0
    1.5914   -1.0806   -1.8206 H   0  0  0  0  0  0  0  0  0  0  0  0
    1.4344    0.7542    0.6439 H   0  0  0  0  0  0  0  0  0  0  0  0
    1.6272    1.3089   -1.0127 H   0  0  0  0  0  0  0  0  0  0  0  0
    3.6056   -0.4878    0.4918 H   0  0  0  0  0  0  0  0  0  0  0  0
    3.8078    1.2403    0.1559 H   0  0  0  0  0  0  0  0  0  0  0  0
    3.8033    0.0757   -1.1796 H   0  0  0  0  0  0  0  0  0  0  0  0
  1  2  1  0
  2  3  1  0
  3  4  1  0
  4  5  2  0
  4  6  1  0
  6  7  1  0
  7  8  1  0
  1  9  1  0
  1 10  1  0
  1 11  1  0
  2 12  1  0
  2 13  1  0
  3 14  1  0
  3 15  1  0
  6 16  1  0
  6 17  1  0
  7 18  1  0
  7 19  1  0
  8 20  1  0
  8 21  1  0
  8 22  1  0
M  END
>  <Energy>  (9) 
-0.4395312336278137

>  <Real charge>  (9) 
0

>  <Mult>  (9) 
1

$$$$
mol_238 182
     RDKit          3D

 22 21  0  0  0  0  0  0  0  0999 V2000
   -3.2183    0.6480    0.5378 C   0  0  0  0  0  0  0  0  0  0  0  0
   -2.5438   -0.4379   -0.2888 C   0  0  0  0  0  0  0  0  0  0  0  0
   -1.0683   -0.1441   -0.5503 C   0  0  0  0  0  0  0  0  0  0  0  0
   -0.1908   -0.2903    0.6835 C   0  0  0  0  0  0  0  0  0  0  0  0
   -0.5495   -0.9191    1.6792 O   0  0  0  0  0  0  0  0  0  0  0  0
    1.1892    0.3337    0.6196 C   0  0  0  0  0  0  0  0  0  0  0  0
    2.1300   -0.4988   -0.2416 C   0  0  0  0  0  0  0  0  0  0  0  0
    3.5367    0.0766   -0.2454 C   0  0  0  0  0  0  0  0  0  0  0  0
   -3.1452    1.6206    0.0408 H   0  0  0  0  0  0  0  0  0  0  0  0
   -2.7674    0.7354    1.5308 H   0  0  0  0  0  0  0  0  0  0  0  0
   -4.2798    0.4154    0.6701 H   0  0  0  0  0  0  0  0  0  0  0  0
   -3.0630   -0.5133   -1.2515 H   0  0  0  0  0  0  0  0  0  0  0  0
   -2.6614   -1.4047    0.2141 H   0  0  0  0  0  0  0  0  0  0  0  0
   -0.9564    0.8714   -0.9456 H   0  0  0  0  0  0  0  0  0  0  0  0
   -0.6907   -0.8460   -1.3019 H   0  0  0  0  0  0  0  0  0  0  0  0
    1.0961    1.3555    0.2356 H   0  0  0  0  0  0  0  0  0  0  0  0
    1.5734    0.4123    1.6435 H   0  0  0  0  0  0  0  0  0  0  0  0
    2.1598   -1.5308    0.1278 H   0  0  0  0  0  0  0  0  0  0  0  0
    1.7583   -0.5446   -1.2717 H   0  0  0  0  0  0  0  0  0  0  0  0
    4.1946   -0.5344   -0.8714 H   0  0  0  0  0  0  0  0  0  0  0  0
    3.5417    1.0970   -0.6417 H   0  0  0  0  0  0  0  0  0  0  0  0
    3.9546    0.0982    0.7662 H   0  0  0  0  0  0  0  0  0  0  0  0
  1  2  1  0
  2  3  1  0
  3  4  1  0
  4  5  2  0
  4  6  1  0
  6  7  1  0
  7  8  1  0
  1  9  1  0
  1 10  1  0
  1 11  1  0
  2 12  1  0
  2 13  1  0
  3 14  1  0
  3 15  1  0
  6 16  1  0
  6 17  1  0
  7 18  1  0
  7 19  1  0
  8 20  1  0
  8 21  1  0
  8 22  1  0
M  END
>  <Energy>  (10) 
-0.4338166076443824

>  <Real charge>  (10) 
0

>  <Mult>  (10) 
1

$$$$
