mol_609 18
     RDKit          3D

 21 20  0  0  0  0  0  0  0  0999 V2000
    1.9338    0.3449    0.7196 C   0  0  0  0  0  0  0  0  0  0  0  0
    0.9978   -0.3876   -0.2391 C   0  0  0  0  0  0  0  0  0  0  0  0
    1.3941   -0.0611   -1.5736 O   0  0  0  0  0  0  0  0  0  0  0  0
   -0.5174   -0.0778   -0.0556 C   0  0  0  0  0  0  0  0  0  0  0  0
   -0.8299    1.4121   -0.2903 C   0  0  0  0  0  0  0  0  0  0  0  0
   -0.9878   -0.4696    1.3569 C   0  0  0  0  0  0  0  0  0  0  0  0
   -1.3293   -0.9015   -1.0789 C   0  0  0  0  0  0  0  0  0  0  0  0
    1.7182    0.1113    1.7652 H   0  0  0  0  0  0  0  0  0  0  0  0
    2.9731    0.0586    0.5212 H   0  0  0  0  0  0  0  0  0  0  0  0
    1.8869    1.4291    0.5774 H   0  0  0  0  0  0  0  0  0  0  0  0
    1.1555   -1.4667   -0.1164 H   0  0  0  0  0  0  0  0  0  0  0  0
    2.3226   -0.3297   -1.6795 H   0  0  0  0  0  0  0  0  0  0  0  0
   -0.5073    1.7398   -1.2844 H   0  0  0  0  0  0  0  0  0  0  0  0
   -1.9068    1.6034   -0.2153 H   0  0  0  0  0  0  0  0  0  0  0  0
   -0.3375    2.0497    0.4511 H   0  0  0  0  0  0  0  0  0  0  0  0
   -0.7423   -1.5140    1.5789 H   0  0  0  0  0  0  0  0  0  0  0  0
   -0.5276    0.1575    2.1273 H   0  0  0  0  0  0  0  0  0  0  0  0
   -2.0735   -0.3557    1.4570 H   0  0  0  0  0  0  0  0  0  0  0  0
   -1.1372   -1.9740   -0.9617 H   0  0  0  0  0  0  0  0  0  0  0  0
   -1.0793   -0.6263   -2.1093 H   0  0  0  0  0  0  0  0  0  0  0  0
   -2.4062   -0.7424   -0.9506 H   0  0  0  0  0  0  0  0  0  0  0  0
  1  2  1  0
  2  3  1  0
  2  4  1  0
  4  5  1  0
  4  6  1  0
  4  7  1  0
  1  8  1  0
  1  9  1  0
  1 10  1  0
  2 11  1  0
  3 12  1  0
  5 13  1  0
  5 14  1  0
  5 15  1  0
  6 16  1  0
  6 17  1  0
  6 18  1  0
  7 19  1  0
  7 20  1  0
  7 21  1  0
M  END
>  <Energy>  (1) 
16.566967283288005

>  <Real charge>  (1) 
0

>  <Mult>  (1) 
1

$$$$
mol_609 111
     RDKit          3D

 21 20  0  0  0  0  0  0  0  0999 V2000
    2.1077    0.2756    0.0610 C   0  0  0  0  0  0  0  0  0  0  0  0
    0.9277   -0.6633   -0.1797 C   0  0  0  0  0  0  0  0  0  0  0  0
    1.0189   -1.7357    0.7613 O   0  0  0  0  0  0  0  0  0  0  0  0
   -0.4819   -0.0012   -0.1243 C   0  0  0  0  0  0  0  0  0  0  0  0
   -1.5562   -1.0766   -0.3943 C   0  0  0  0  0  0  0  0  0  0  0  0
   -0.7771    0.6303    1.2492 C   0  0  0  0  0  0  0  0  0  0  0  0
   -0.6092    1.0879   -1.2058 C   0  0  0  0  0  0  0  0  0  0  0  0
    2.1513    1.0790   -0.6786 H   0  0  0  0  0  0  0  0  0  0  0  0
    3.0478   -0.2854    0.0050 H   0  0  0  0  0  0  0  0  0  0  0  0
    2.0766    0.7151    1.0628 H   0  0  0  0  0  0  0  0  0  0  0  0
    1.0611   -1.1179   -1.1692 H   0  0  0  0  0  0  0  0  0  0  0  0
    1.0620   -1.3529    1.6536 H   0  0  0  0  0  0  0  0  0  0  0  0
   -1.5518   -1.8543    0.3773 H   0  0  0  0  0  0  0  0  0  0  0  0
   -2.5607   -0.6381   -0.4105 H   0  0  0  0  0  0  0  0  0  0  0  0
   -1.3919   -1.5629   -1.3624 H   0  0  0  0  0  0  0  0  0  0  0  0
   -0.0736    1.4356    1.4835 H   0  0  0  0  0  0  0  0  0  0  0  0
   -0.7261   -0.1093    2.0550 H   0  0  0  0  0  0  0  0  0  0  0  0
   -1.7833    1.0653    1.2713 H   0  0  0  0  0  0  0  0  0  0  0  0
    0.0574    1.9340   -1.0103 H   0  0  0  0  0  0  0  0  0  0  0  0
   -0.3687    0.6893   -2.1977 H   0  0  0  0  0  0  0  0  0  0  0  0
   -1.6299    1.4856   -1.2475 H   0  0  0  0  0  0  0  0  0  0  0  0
  1  2  1  0
  2  3  1  0
  2  4  1  0
  4  5  1  0
  4  6  1  0
  4  7  1  0
  1  8  1  0
  1  9  1  0
  1 10  1  0
  2 11  1  0
  3 12  1  0
  5 13  1  0
  5 14  1  0
  5 15  1  0
  6 16  1  0
  6 17  1  0
  6 18  1  0
  7 19  1  0
  7 20  1  0
  7 21  1  0
M  END
>  <Energy>  (2) 
16.907877524885606

>  <Real charge>  (2) 
0

>  <Mult>  (2) 
1

$$$$
