mol_297 291
     RDKit          3D

 20 19  0  0  0  0  0  0  0  0999 V2000
    3.1622   -0.0970   -0.5441 C   0  0  0  0  0  0  0  0  0  0  0  0
    1.7595    0.4199   -0.8210 C   0  0  0  0  0  0  0  0  0  0  0  0
    0.7272   -0.2477    0.0872 C   0  0  0  0  0  0  0  0  0  0  0  0
   -0.6824    0.2750   -0.1945 C   0  0  0  0  0  0  0  0  0  0  0  0
   -1.7160   -0.3930    0.7142 C   0  0  0  0  0  0  0  0  0  0  0  0
   -3.1170    0.1317    0.4288 C   0  0  0  0  0  0  0  0  0  0  0  0
   -4.3036   -0.6560    1.4942 Cl  0  0  0  0  0  0  0  0  0  0  0  0
    3.8842    0.3937   -1.2044 H   0  0  0  0  0  0  0  0  0  0  0  0
    3.4572    0.1038    0.4908 H   0  0  0  0  0  0  0  0  0  0  0  0
    3.2236   -1.1764   -0.7160 H   0  0  0  0  0  0  0  0  0  0  0  0
    1.5081    0.2326   -1.8714 H   0  0  0  0  0  0  0  0  0  0  0  0
    1.7404    1.5057   -0.6714 H   0  0  0  0  0  0  0  0  0  0  0  0
    0.9856   -0.0608    1.1366 H   0  0  0  0  0  0  0  0  0  0  0  0
    0.7533   -1.3339   -0.0634 H   0  0  0  0  0  0  0  0  0  0  0  0
   -0.7084    1.3611   -0.0438 H   0  0  0  0  0  0  0  0  0  0  0  0
   -0.9407    0.0879   -1.2440 H   0  0  0  0  0  0  0  0  0  0  0  0
   -1.6877   -1.4792    0.5629 H   0  0  0  0  0  0  0  0  0  0  0  0
   -1.4553   -0.2057    1.7633 H   0  0  0  0  0  0  0  0  0  0  0  0
   -3.4122   -0.0718   -0.6049 H   0  0  0  0  0  0  0  0  0  0  0  0
   -3.1783    1.2101    0.6034 H   0  0  0  0  0  0  0  0  0  0  0  0
  1  2  1  0
  2  3  1  0
  3  4  1  0
  4  5  1  0
  5  6  1  0
  6  7  1  0
  1  8  1  0
  1  9  1  0
  1 10  1  0
  2 11  1  0
  2 12  1  0
  3 13  1  0
  3 14  1  0
  4 15  1  0
  4 16  1  0
  5 17  1  0
  5 18  1  0
  6 19  1  0
  6 20  1  0
M  END
>  <Energy>  (1) 
-2.9936838193677233

>  <Real charge>  (1) 
0

>  <Mult>  (1) 
1

$$$$
mol_297 90
     RDKit          3D

 20 19  0  0  0  0  0  0  0  0999 V2000
   -3.1855    0.1834    0.1059 C   0  0  0  0  0  0  0  0  0  0  0  0
   -1.8720   -0.4681   -0.2964 C   0  0  0  0  0  0  0  0  0  0  0  0
   -0.6720    0.3294    0.2139 C   0  0  0  0  0  0  0  0  0  0  0  0
    0.6480   -0.3297   -0.1927 C   0  0  0  0  0  0  0  0  0  0  0  0
    1.8482    0.4715    0.3206 C   0  0  0  0  0  0  0  0  0  0  0  0
    3.1892   -0.1871    0.0132 C   0  0  0  0  0  0  0  0  0  0  0  0
    3.5346   -0.2180   -1.7312 Cl  0  0  0  0  0  0  0  0  0  0  0  0
   -4.0300   -0.4031   -0.2693 H   0  0  0  0  0  0  0  0  0  0  0  0
   -3.2740    0.2480    1.1951 H   0  0  0  0  0  0  0  0  0  0  0  0
   -3.2644    1.1945   -0.3062 H   0  0  0  0  0  0  0  0  0  0  0  0
   -1.8297   -0.5468   -1.3890 H   0  0  0  0  0  0  0  0  0  0  0  0
   -1.8390   -1.4880    0.1041 H   0  0  0  0  0  0  0  0  0  0  0  0
   -0.7116    1.3497   -0.1866 H   0  0  0  0  0  0  0  0  0  0  0  0
   -0.7222    0.4089    1.3067 H   0  0  0  0  0  0  0  0  0  0  0  0
    0.6882   -1.3486    0.2112 H   0  0  0  0  0  0  0  0  0  0  0  0
    0.6865   -0.4125   -1.2847 H   0  0  0  0  0  0  0  0  0  0  0  0
    1.7630    0.5792    1.4092 H   0  0  0  0  0  0  0  0  0  0  0  0
    1.8258    1.4852   -0.0982 H   0  0  0  0  0  0  0  0  0  0  0  0
    3.9997    0.3696    0.4932 H   0  0  0  0  0  0  0  0  0  0  0  0
    3.2174   -1.2173    0.3811 H   0  0  0  0  0  0  0  0  0  0  0  0
  1  2  1  0
  2  3  1  0
  3  4  1  0
  4  5  1  0
  5  6  1  0
  6  7  1  0
  1  8  1  0
  1  9  1  0
  1 10  1  0
  2 11  1  0
  2 12  1  0
  3 13  1  0
  3 14  1  0
  4 15  1  0
  4 16  1  0
  5 17  1  0
  5 18  1  0
  6 19  1  0
  6 20  1  0
M  END
>  <Energy>  (2) 
-2.9730309953598213

>  <Real charge>  (2) 
0

>  <Mult>  (2) 
1

$$$$
mol_297 290
     RDKit          3D

 20 19  0  0  0  0  0  0  0  0999 V2000
    2.9360    0.4293   -0.1541 C   0  0  0  0  0  0  0  0  0  0  0  0
    1.7777   -0.0096    0.7275 C   0  0  0  0  0  0  0  0  0  0  0  0
    0.4699   -0.0849   -0.0619 C   0  0  0  0  0  0  0  0  0  0  0  0
   -0.6921   -0.5225    0.8323 C   0  0  0  0  0  0  0  0  0  0  0  0
   -2.0039   -0.7358    0.0680 C   0  0  0  0  0  0  0  0  0  0  0  0
   -2.5550    0.4867   -0.6600 C   0  0  0  0  0  0  0  0  0  0  0  0
   -2.9378    1.8164    0.4563 Cl  0  0  0  0  0  0  0  0  0  0  0  0
    3.8604    0.4757    0.4300 H   0  0  0  0  0  0  0  0  0  0  0  0
    2.7521    1.4215   -0.5784 H   0  0  0  0  0  0  0  0  0  0  0  0
    3.0899   -0.2741   -0.9786 H   0  0  0  0  0  0  0  0  0  0  0  0
    2.0082   -0.9895    1.1616 H   0  0  0  0  0  0  0  0  0  0  0  0
    1.6704    0.6969    1.5588 H   0  0  0  0  0  0  0  0  0  0  0  0
    0.5825   -0.7925   -0.8921 H   0  0  0  0  0  0  0  0  0  0  0  0
    0.2590    0.8981   -0.4976 H   0  0  0  0  0  0  0  0  0  0  0  0
   -0.4297   -1.4693    1.3213 H   0  0  0  0  0  0  0  0  0  0  0  0
   -0.8359    0.2080    1.6366 H   0  0  0  0  0  0  0  0  0  0  0  0
   -1.8555   -1.5364   -0.6674 H   0  0  0  0  0  0  0  0  0  0  0  0
   -2.7596   -1.1047    0.7730 H   0  0  0  0  0  0  0  0  0  0  0  0
   -3.4828    0.2230   -1.1770 H   0  0  0  0  0  0  0  0  0  0  0  0
   -1.8538    0.8637   -1.4094 H   0  0  0  0  0  0  0  0  0  0  0  0
  1  2  1  0
  2  3  1  0
  3  4  1  0
  4  5  1  0
  5  6  1  0
  6  7  1  0
  1  8  1  0
  1  9  1  0
  1 10  1  0
  2 11  1  0
  2 12  1  0
  3 13  1  0
  3 14  1  0
  4 15  1  0
  4 16  1  0
  5 17  1  0
  5 18  1  0
  6 19  1  0
  6 20  1  0
M  END
>  <Energy>  (3) 
-2.3240378191597126

>  <Real charge>  (3) 
0

>  <Mult>  (3) 
1

$$$$
mol_297 279
     RDKit          3D

 20 19  0  0  0  0  0  0  0  0999 V2000
    2.9146    0.4940   -0.5056 C   0  0  0  0  0  0  0  0  0  0  0  0
    1.8684   -0.3574    0.1961 C   0  0  0  0  0  0  0  0  0  0  0  0
    0.4526    0.0205   -0.2418 C   0  0  0  0  0  0  0  0  0  0  0  0
   -0.5948   -0.8380    0.4708 C   0  0  0  0  0  0  0  0  0  0  0  0
   -2.0249   -0.5770   -0.0112 C   0  0  0  0  0  0  0  0  0  0  0  0
   -2.5240    0.8229    0.3244 C   0  0  0  0  0  0  0  0  0  0  0  0
   -4.2257    1.0058   -0.1662 Cl  0  0  0  0  0  0  0  0  0  0  0  0
    3.9187    0.2067   -0.1785 H   0  0  0  0  0  0  0  0  0  0  0  0
    2.8611    0.3652   -1.5914 H   0  0  0  0  0  0  0  0  0  0  0  0
    2.7738    1.5554   -0.2778 H   0  0  0  0  0  0  0  0  0  0  0  0
    2.0578   -1.4141   -0.0259 H   0  0  0  0  0  0  0  0  0  0  0  0
    1.9691   -0.2302    1.2802 H   0  0  0  0  0  0  0  0  0  0  0  0
    0.2817    1.0806   -0.0237 H   0  0  0  0  0  0  0  0  0  0  0  0
    0.3575   -0.1082   -1.3267 H   0  0  0  0  0  0  0  0  0  0  0  0
   -0.3652   -1.8973    0.3009 H   0  0  0  0  0  0  0  0  0  0  0  0
   -0.5359   -0.6721    1.5535 H   0  0  0  0  0  0  0  0  0  0  0  0
   -2.0825   -0.7465   -1.0935 H   0  0  0  0  0  0  0  0  0  0  0  0
   -2.6822   -1.3188    0.4599 H   0  0  0  0  0  0  0  0  0  0  0  0
   -1.9535    1.5926   -0.2016 H   0  0  0  0  0  0  0  0  0  0  0  0
   -2.4666    1.0161    1.3997 H   0  0  0  0  0  0  0  0  0  0  0  0
  1  2  1  0
  2  3  1  0
  3  4  1  0
  4  5  1  0
  5  6  1  0
  6  7  1  0
  1  8  1  0
  1  9  1  0
  1 10  1  0
  2 11  1  0
  2 12  1  0
  3 13  1  0
  3 14  1  0
  4 15  1  0
  4 16  1  0
  5 17  1  0
  5 18  1  0
  6 19  1  0
  6 20  1  0
M  END
>  <Energy>  (4) 
-2.171649682982352

>  <Real charge>  (4) 
0

>  <Mult>  (4) 
1

$$$$
mol_297 244
     RDKit          3D

 20 19  0  0  0  0  0  0  0  0999 V2000
   -2.7076   -0.1260    0.4196 C   0  0  0  0  0  0  0  0  0  0  0  0
   -1.9243    0.8244   -0.4727 C   0  0  0  0  0  0  0  0  0  0  0  0
   -0.4780    1.0355   -0.0200 C   0  0  0  0  0  0  0  0  0  0  0  0
    0.3795   -0.2281   -0.1204 C   0  0  0  0  0  0  0  0  0  0  0  0
    1.8382    0.0619    0.2412 C   0  0  0  0  0  0  0  0  0  0  0  0
    2.6879   -1.1983    0.1435 C   0  0  0  0  0  0  0  0  0  0  0  0
    4.3782   -0.8415    0.5668 Cl  0  0  0  0  0  0  0  0  0  0  0  0
   -2.6793    0.2016    1.4636 H   0  0  0  0  0  0  0  0  0  0  0  0
   -3.7552   -0.1598    0.1036 H   0  0  0  0  0  0  0  0  0  0  0  0
   -2.3132   -1.1449    0.3650 H   0  0  0  0  0  0  0  0  0  0  0  0
   -2.4321    1.7963   -0.4759 H   0  0  0  0  0  0  0  0  0  0  0  0
   -1.9424    0.4544   -1.5044 H   0  0  0  0  0  0  0  0  0  0  0  0
   -0.0349    1.8202   -0.6458 H   0  0  0  0  0  0  0  0  0  0  0  0
   -0.4664    1.4099    1.0109 H   0  0  0  0  0  0  0  0  0  0  0  0
   -0.0096   -1.0004    0.5526 H   0  0  0  0  0  0  0  0  0  0  0  0
    0.3270   -0.6280   -1.1403 H   0  0  0  0  0  0  0  0  0  0  0  0
    1.8882    0.4663    1.2598 H   0  0  0  0  0  0  0  0  0  0  0  0
    2.2360    0.8311   -0.4323 H   0  0  0  0  0  0  0  0  0  0  0  0
    2.6784   -1.6035   -0.8728 H   0  0  0  0  0  0  0  0  0  0  0  0
    2.3296   -1.9709    0.8305 H   0  0  0  0  0  0  0  0  0  0  0  0
  1  2  1  0
  2  3  1  0
  3  4  1  0
  4  5  1  0
  5  6  1  0
  6  7  1  0
  1  8  1  0
  1  9  1  0
  1 10  1  0
  2 11  1  0
  2 12  1  0
  3 13  1  0
  3 14  1  0
  4 15  1  0
  4 16  1  0
  5 17  1  0
  5 18  1  0
  6 19  1  0
  6 20  1  0
M  END
>  <Energy>  (5) 
-2.1691836008173673

>  <Real charge>  (5) 
0

>  <Mult>  (5) 
1

$$$$
mol_297 167
     RDKit          3D

 20 19  0  0  0  0  0  0  0  0999 V2000
   -2.6131   -0.0663    0.7313 C   0  0  0  0  0  0  0  0  0  0  0  0
   -2.0360    0.0292   -0.6726 C   0  0  0  0  0  0  0  0  0  0  0  0
   -0.6233   -0.5464   -0.7931 C   0  0  0  0  0  0  0  0  0  0  0  0
    0.4215    0.2372    0.0061 C   0  0  0  0  0  0  0  0  0  0  0  0
    1.8297   -0.3166   -0.2362 C   0  0  0  0  0  0  0  0  0  0  0  0
    2.9014    0.3715    0.6035 C   0  0  0  0  0  0  0  0  0  0  0  0
    3.1276    2.0724    0.1355 Cl  0  0  0  0  0  0  0  0  0  0  0  0
   -3.6551    0.2697    0.7323 H   0  0  0  0  0  0  0  0  0  0  0  0
   -2.0622    0.5639    1.4355 H   0  0  0  0  0  0  0  0  0  0  0  0
   -2.5897   -1.0977    1.0968 H   0  0  0  0  0  0  0  0  0  0  0  0
   -2.6937   -0.5196   -1.3572 H   0  0  0  0  0  0  0  0  0  0  0  0
   -2.0419    1.0757   -0.9990 H   0  0  0  0  0  0  0  0  0  0  0  0
   -0.6256   -1.5951   -0.4718 H   0  0  0  0  0  0  0  0  0  0  0  0
   -0.3410   -0.5414   -1.8533 H   0  0  0  0  0  0  0  0  0  0  0  0
    0.1945    0.1795    1.0765 H   0  0  0  0  0  0  0  0  0  0  0  0
    0.3755    1.2936   -0.2810 H   0  0  0  0  0  0  0  0  0  0  0  0
    1.8372   -1.3856    0.0106 H   0  0  0  0  0  0  0  0  0  0  0  0
    2.0831   -0.2378   -1.3006 H   0  0  0  0  0  0  0  0  0  0  0  0
    2.6473    0.3452    1.6675 H   0  0  0  0  0  0  0  0  0  0  0  0
    3.8638   -0.1314    0.4693 H   0  0  0  0  0  0  0  0  0  0  0  0
  1  2  1  0
  2  3  1  0
  3  4  1  0
  4  5  1  0
  5  6  1  0
  6  7  1  0
  1  8  1  0
  1  9  1  0
  1 10  1  0
  2 11  1  0
  2 12  1  0
  3 13  1  0
  3 14  1  0
  4 15  1  0
  4 16  1  0
  5 17  1  0
  5 18  1  0
  6 19  1  0
  6 20  1  0
M  END
>  <Energy>  (6) 
-2.161120109573408

>  <Real charge>  (6) 
0

>  <Mult>  (6) 
1

$$$$
mol_297 236
     RDKit          3D

 20 19  0  0  0  0  0  0  0  0999 V2000
    3.0041   -0.3007    0.3474 C   0  0  0  0  0  0  0  0  0  0  0  0
    1.5002   -0.4818    0.4869 C   0  0  0  0  0  0  0  0  0  0  0  0
    0.7565    0.0817   -0.7246 C   0  0  0  0  0  0  0  0  0  0  0  0
   -0.7533   -0.1759   -0.6847 C   0  0  0  0  0  0  0  0  0  0  0  0
   -1.4625    0.5585    0.4579 C   0  0  0  0  0  0  0  0  0  0  0  0
   -2.9837    0.4613    0.3810 C   0  0  0  0  0  0  0  0  0  0  0  0
   -3.5599   -1.2031    0.6287 Cl  0  0  0  0  0  0  0  0  0  0  0  0
    3.5175   -0.7066    1.2247 H   0  0  0  0  0  0  0  0  0  0  0  0
    3.2650    0.7589    0.2607 H   0  0  0  0  0  0  0  0  0  0  0  0
    3.3820   -0.8218   -0.5381 H   0  0  0  0  0  0  0  0  0  0  0  0
    1.1712    0.0197    1.4032 H   0  0  0  0  0  0  0  0  0  0  0  0
    1.2758   -1.5487    0.5993 H   0  0  0  0  0  0  0  0  0  0  0  0
    1.1572   -0.3781   -1.6366 H   0  0  0  0  0  0  0  0  0  0  0  0
    0.9442    1.1592   -0.8069 H   0  0  0  0  0  0  0  0  0  0  0  0
   -0.9314   -1.2550   -0.6136 H   0  0  0  0  0  0  0  0  0  0  0  0
   -1.1803    0.1532   -1.6402 H   0  0  0  0  0  0  0  0  0  0  0  0
   -1.1229    0.1734    1.4262 H   0  0  0  0  0  0  0  0  0  0  0  0
   -1.1866    1.6196    0.4241 H   0  0  0  0  0  0  0  0  0  0  0  0
   -3.4393    1.0807    1.1593 H   0  0  0  0  0  0  0  0  0  0  0  0
   -3.3536    0.8054   -0.5896 H   0  0  0  0  0  0  0  0  0  0  0  0
  1  2  1  0
  2  3  1  0
  3  4  1  0
  4  5  1  0
  5  6  1  0
  6  7  1  0
  1  8  1  0
  1  9  1  0
  1 10  1  0
  2 11  1  0
  2 12  1  0
  3 13  1  0
  3 14  1  0
  4 15  1  0
  4 16  1  0
  5 17  1  0
  5 18  1  0
  6 19  1  0
  6 20  1  0
M  END
>  <Energy>  (7) 
-2.1574138361844435

>  <Real charge>  (7) 
0

>  <Mult>  (7) 
1

$$$$
mol_297 220
     RDKit          3D

 20 19  0  0  0  0  0  0  0  0999 V2000
   -2.5558    0.4647   -0.7717 C   0  0  0  0  0  0  0  0  0  0  0  0
   -2.0454   -0.6348    0.1469 C   0  0  0  0  0  0  0  0  0  0  0  0
   -0.5755   -0.9918   -0.0843 C   0  0  0  0  0  0  0  0  0  0  0  0
    0.3878    0.1456    0.2664 C   0  0  0  0  0  0  0  0  0  0  0  0
    1.8461   -0.3014    0.1184 C   0  0  0  0  0  0  0  0  0  0  0  0
    2.8504    0.7701    0.5310 C   0  0  0  0  0  0  0  0  0  0  0  0
    2.8240    2.1697   -0.5662 Cl  0  0  0  0  0  0  0  0  0  0  0  0
   -2.0676    1.4211   -0.5631 H   0  0  0  0  0  0  0  0  0  0  0  0
   -3.6319    0.6047   -0.6274 H   0  0  0  0  0  0  0  0  0  0  0  0
   -2.3854    0.2099   -1.8224 H   0  0  0  0  0  0  0  0  0  0  0  0
   -2.1978   -0.3378    1.1911 H   0  0  0  0  0  0  0  0  0  0  0  0
   -2.6507   -1.5342   -0.0180 H   0  0  0  0  0  0  0  0  0  0  0  0
   -0.3360   -1.8676    0.5314 H   0  0  0  0  0  0  0  0  0  0  0  0
   -0.4297   -1.2910   -1.1294 H   0  0  0  0  0  0  0  0  0  0  0  0
    0.2085    0.4729    1.2976 H   0  0  0  0  0  0  0  0  0  0  0  0
    0.1958    1.0035   -0.3859 H   0  0  0  0  0  0  0  0  0  0  0  0
    2.0366   -0.6130   -0.9160 H   0  0  0  0  0  0  0  0  0  0  0  0
    2.0123   -1.1840    0.7485 H   0  0  0  0  0  0  0  0  0  0  0  0
    3.8652    0.3618    0.5090 H   0  0  0  0  0  0  0  0  0  0  0  0
    2.6491    1.1317    1.5440 H   0  0  0  0  0  0  0  0  0  0  0  0
  1  2  1  0
  2  3  1  0
  3  4  1  0
  4  5  1  0
  5  6  1  0
  6  7  1  0
  1  8  1  0
  1  9  1  0
  1 10  1  0
  2 11  1  0
  2 12  1  0
  3 13  1  0
  3 14  1  0
  4 15  1  0
  4 16  1  0
  5 17  1  0
  5 18  1  0
  6 19  1  0
  6 20  1  0
M  END
>  <Energy>  (8) 
-2.1504113944413636

>  <Real charge>  (8) 
0

>  <Mult>  (8) 
1

$$$$
mol_297 200
     RDKit          3D

 20 19  0  0  0  0  0  0  0  0999 V2000
   -2.9980    0.4530   -0.0321 C   0  0  0  0  0  0  0  0  0  0  0  0
   -1.5865   -0.0682   -0.2563 C   0  0  0  0  0  0  0  0  0  0  0  0
   -0.7148    0.1332    0.9838 C   0  0  0  0  0  0  0  0  0  0  0  0
    0.6833   -0.4775    0.8512 C   0  0  0  0  0  0  0  0  0  0  0  0
    1.5467    0.2035   -0.2133 C   0  0  0  0  0  0  0  0  0  0  0  0
    2.9587   -0.3697   -0.2185 C   0  0  0  0  0  0  0  0  0  0  0  0
    3.9487    0.4298   -1.4613 Cl  0  0  0  0  0  0  0  0  0  0  0  0
   -3.4838   -0.0725    0.7962 H   0  0  0  0  0  0  0  0  0  0  0  0
   -2.9888    1.5233    0.1975 H   0  0  0  0  0  0  0  0  0  0  0  0
   -3.6043    0.3033   -0.9310 H   0  0  0  0  0  0  0  0  0  0  0  0
   -1.1536    0.4545   -1.1158 H   0  0  0  0  0  0  0  0  0  0  0  0
   -1.6332   -1.1333   -0.5106 H   0  0  0  0  0  0  0  0  0  0  0  0
   -1.2088   -0.3298    1.8471 H   0  0  0  0  0  0  0  0  0  0  0  0
   -0.6290    1.2037    1.2069 H   0  0  0  0  0  0  0  0  0  0  0  0
    0.5974   -1.5482    0.6293 H   0  0  0  0  0  0  0  0  0  0  0  0
    1.1845   -0.3961    1.8238 H   0  0  0  0  0  0  0  0  0  0  0  0
    1.0969    0.0668   -1.2032 H   0  0  0  0  0  0  0  0  0  0  0  0
    1.5846    1.2823   -0.0184 H   0  0  0  0  0  0  0  0  0  0  0  0
    3.4512   -0.2170    0.7466 H   0  0  0  0  0  0  0  0  0  0  0  0
    2.9490   -1.4412   -0.4397 H   0  0  0  0  0  0  0  0  0  0  0  0
  1  2  1  0
  2  3  1  0
  3  4  1  0
  4  5  1  0
  5  6  1  0
  6  7  1  0
  1  8  1  0
  1  9  1  0
  1 10  1  0
  2 11  1  0
  2 12  1  0
  3 13  1  0
  3 14  1  0
  4 15  1  0
  4 16  1  0
  5 17  1  0
  5 18  1  0
  6 19  1  0
  6 20  1  0
M  END
>  <Energy>  (9) 
-2.1164295011814476

>  <Real charge>  (9) 
0

>  <Mult>  (9) 
1

$$$$
