mol_1044 60
     RDKit          3D

 15 15  0  0  0  0  0  0  0  0999 V2000
   -2.4868    0.7910    0.1013 N   0  0  0  0  0  0  0  0  0  0  0  0
   -1.7893   -0.3740   -0.0640 C   0  0  0  0  0  0  0  0  0  0  0  0
   -2.3772   -1.4323   -0.2455 O   0  0  0  0  0  0  0  0  0  0  0  0
   -0.3113   -0.3025   -0.0498 C   0  0  0  0  0  0  0  0  0  0  0  0
    0.4055    0.7680    0.4902 C   0  0  0  0  0  0  0  0  0  0  0  0
    1.7996    0.7422    0.4590 C   0  0  0  0  0  0  0  0  0  0  0  0
    2.4283   -0.3558   -0.1077 C   0  0  0  0  0  0  0  0  0  0  0  0
    1.7667   -1.4106   -0.6293 N   0  0  0  0  0  0  0  0  0  0  0  0
    0.4108   -1.3643   -0.5819 C   0  0  0  0  0  0  0  0  0  0  0  0
   -2.0666    1.7011   -0.0167 H   0  0  0  0  0  0  0  0  0  0  0  0
   -3.4891    0.7254   -0.0303 H   0  0  0  0  0  0  0  0  0  0  0  0
   -0.0961    1.6092    0.9566 H   0  0  0  0  0  0  0  0  0  0  0  0
    2.3839    1.5561    0.8746 H   0  0  0  0  0  0  0  0  0  0  0  0
    3.5121   -0.4205   -0.1535 H   0  0  0  0  0  0  0  0  0  0  0  0
   -0.0905   -2.2330   -1.0029 H   0  0  0  0  0  0  0  0  0  0  0  0
  1  2  1  0
  2  3  2  0
  2  4  1  0
  4  5  2  0
  5  6  1  0
  6  7  2  0
  7  8  1  0
  8  9  2  0
  9  4  1  0
  1 10  1  0
  1 11  1  0
  5 12  1  0
  6 13  1  0
  7 14  1  0
  9 15  1  0
M  END
>  <Energy>  (1) 
5.023581013418482

>  <Real charge>  (1) 
0

>  <Mult>  (1) 
1

$$$$
mol_1044 19
     RDKit          3D

 15 15  0  0  0  0  0  0  0  0999 V2000
    2.6662    0.2835    0.0808 N   0  0  0  0  0  0  0  0  0  0  0  0
    1.6773   -0.6518   -0.0558 C   0  0  0  0  0  0  0  0  0  0  0  0
    1.9543   -1.8276   -0.2568 O   0  0  0  0  0  0  0  0  0  0  0  0
    0.2724   -0.1923    0.0048 C   0  0  0  0  0  0  0  0  0  0  0  0
   -0.7353   -0.9803   -0.5557 C   0  0  0  0  0  0  0  0  0  0  0  0
   -2.0587   -0.5486   -0.4968 C   0  0  0  0  0  0  0  0  0  0  0  0
   -2.3289    0.6585    0.1283 C   0  0  0  0  0  0  0  0  0  0  0  0
   -1.3814    1.4403    0.6921 N   0  0  0  0  0  0  0  0  0  0  0  0
   -0.1029    0.9910    0.6259 C   0  0  0  0  0  0  0  0  0  0  0  0
    3.6080   -0.0506   -0.0872 H   0  0  0  0  0  0  0  0  0  0  0  0
    2.5066    1.2733   -0.0431 H   0  0  0  0  0  0  0  0  0  0  0  0
   -0.4910   -1.9250   -1.0364 H   0  0  0  0  0  0  0  0  0  0  0  0
   -2.8586   -1.1414   -0.9268 H   0  0  0  0  0  0  0  0  0  0  0  0
   -3.3450    1.0374    0.1983 H   0  0  0  0  0  0  0  0  0  0  0  0
    0.6170    1.6336    1.1225 H   0  0  0  0  0  0  0  0  0  0  0  0
  1  2  1  0
  2  3  2  0
  2  4  1  0
  4  5  2  0
  5  6  1  0
  6  7  2  0
  7  8  1  0
  8  9  2  0
  9  4  1  0
  1 10  1  0
  1 11  1  0
  5 12  1  0
  6 13  1  0
  7 14  1  0
  9 15  1  0
M  END
>  <Energy>  (2) 
5.969152854876426

>  <Real charge>  (2) 
0

>  <Mult>  (2) 
1

$$$$
