mol_1048 123
     RDKit          3D

 10  9  0  0  0  0  0  0  0  0999 V2000
   -1.8108    0.2899   -0.6796 C   0  0  0  0  0  0  0  0  0  0  0  0
   -0.9624   -1.2155   -0.1407 S   0  0  0  0  0  0  0  0  0  0  0  0
    0.7658   -1.1526   -1.2551 S   0  0  0  0  0  0  0  0  0  0  0  0
    1.8271   -0.0931   -0.2413 C   0  0  0  0  0  0  0  0  0  0  0  0
   -1.2187    1.1759   -0.4356 H   0  0  0  0  0  0  0  0  0  0  0  0
   -2.7689    0.3640   -0.1579 H   0  0  0  0  0  0  0  0  0  0  0  0
   -2.0073    0.2569   -1.7546 H   0  0  0  0  0  0  0  0  0  0  0  0
    1.3913    0.9039   -0.1367 H   0  0  0  0  0  0  0  0  0  0  0  0
    2.7997    0.0079   -0.7306 H   0  0  0  0  0  0  0  0  0  0  0  0
    1.9841   -0.5372    0.7454 H   0  0  0  0  0  0  0  0  0  0  0  0
  1  2  1  0
  2  3  1  0
  3  4  1  0
  1  5  1  0
  1  6  1  0
  1  7  1  0
  4  8  1  0
  4  9  1  0
  4 10  1  0
M  END
>  <Energy>  (1) 
-0.5416157649498743

>  <Real charge>  (1) 
0

>  <Mult>  (1) 
1

$$$$
