mol_539 84
     RDKit          3D

 11 10  0  0  0  0  0  0  0  0999 V2000
   -1.3579    0.0430    0.1434 C   0  0  0  0  0  0  0  0  0  0  0  0
   -0.0064   -0.4276   -0.3854 C   0  0  0  0  0  0  0  0  0  0  0  0
    1.1383    0.3647    0.2414 C   0  0  0  0  0  0  0  0  0  0  0  0
    3.0132   -0.3204   -0.5211 I   0  0  0  0  0  0  0  0  0  0  0  0
   -2.1688   -0.5501   -0.3295 H   0  0  0  0  0  0  0  0  0  0  0  0
   -1.4113   -0.0964    1.2442 H   0  0  0  0  0  0  0  0  0  0  0  0
   -1.5148    1.1158   -0.0990 H   0  0  0  0  0  0  0  0  0  0  0  0
    0.1194   -1.5069   -0.1519 H   0  0  0  0  0  0  0  0  0  0  0  0
    0.0164   -0.3000   -1.4892 H   0  0  0  0  0  0  0  0  0  0  0  0
    1.1376    0.2334    1.3446 H   0  0  0  0  0  0  0  0  0  0  0  0
    1.0343    1.4446    0.0025 H   0  0  0  0  0  0  0  0  0  0  0  0
  1  2  1  0
  2  3  1  0
  3  4  1  0
  1  5  1  0
  1  6  1  0
  1  7  1  0
  2  8  1  0
  2  9  1  0
  3 10  1  0
  3 11  1  0
M  END
>  <Energy>  (1) 
0.8907371309751447

>  <Real charge>  (1) 
0

>  <Mult>  (1) 
1

$$$$
mol_539 27
     RDKit          3D

 11 10  0  0  0  0  0  0  0  0999 V2000
    1.2626    0.3180    0.0023 C   0  0  0  0  0  0  0  0  0  0  0  0
    0.0847   -0.6541    0.0325 C   0  0  0  0  0  0  0  0  0  0  0  0
   -1.2506    0.0491   -0.2190 C   0  0  0  0  0  0  0  0  0  0  0  0
   -1.8480    1.2521    1.4500 I   0  0  0  0  0  0  0  0  0  0  0  0
    1.3093    0.8387   -0.9778 H   0  0  0  0  0  0  0  0  0  0  0  0
    1.1719    1.0701    0.8136 H   0  0  0  0  0  0  0  0  0  0  0  0
    2.2091   -0.2435    0.1495 H   0  0  0  0  0  0  0  0  0  0  0  0
    0.2392   -1.4208   -0.7573 H   0  0  0  0  0  0  0  0  0  0  0  0
    0.0548   -1.1743    1.0139 H   0  0  0  0  0  0  0  0  0  0  0  0
   -1.1935    0.6811   -1.1308 H   0  0  0  0  0  0  0  0  0  0  0  0
   -2.0395   -0.7163   -0.3770 H   0  0  0  0  0  0  0  0  0  0  0  0
  1  2  1  0
  2  3  1  0
  3  4  1  0
  1  5  1  0
  1  6  1  0
  1  7  1  0
  2  8  1  0
  2  9  1  0
  3 10  1  0
  3 11  1  0
M  END
>  <Energy>  (2) 
1.8173735497702088

>  <Real charge>  (2) 
0

>  <Mult>  (2) 
1

$$$$
