mol_87 465
     RDKit          3D

 56 58  0  0  0  0  0  0  0  0999 V2000
   -4.7879    1.0346   -0.9204 C   0  0  0  0  0  0  0  0  0  0  0  0
   -3.5223    1.3278   -1.7384 C   0  0  0  0  0  0  0  0  0  0  0  0
   -3.8532    2.4123   -2.7747 C   0  0  0  0  0  0  0  0  0  0  0  0
   -2.3380    1.7598   -0.8256 C   0  0  0  0  0  0  0  0  0  0  0  0
   -1.1020    2.1498   -1.6336 C   0  0  0  0  0  0  0  0  0  0  0  0
   -0.5344    3.2303   -1.5305 O   0  0  0  0  0  0  0  0  0  0  0  0
   -0.7109    1.1495   -2.4666 O   0  0  0  0  0  0  0  0  0  0  0  0
    0.4984    1.4060   -3.2089 C   0  0  0  0  0  0  0  0  0  0  0  0
    0.4514    0.6503   -4.4812 C   0  0  0  0  0  0  0  0  0  0  0  0
    0.3954    0.0671   -5.4851 N   0  0  0  0  0  0  0  0  0  0  0  0
    1.6974    1.0022   -2.3664 C   0  0  0  0  0  0  0  0  0  0  0  0
    2.7993    1.8652   -2.2417 C   0  0  0  0  0  0  0  0  0  0  0  0
    3.9077    1.4997   -1.4733 C   0  0  0  0  0  0  0  0  0  0  0  0
    3.9258    0.2741   -0.8103 C   0  0  0  0  0  0  0  0  0  0  0  0
    2.8263   -0.5778   -0.9080 C   0  0  0  0  0  0  0  0  0  0  0  0
    2.8028   -1.8032   -0.2875 O   0  0  0  0  0  0  0  0  0  0  0  0
    2.9220   -1.8246    1.0852 C   0  0  0  0  0  0  0  0  0  0  0  0
    2.4237   -0.8287    1.9303 C   0  0  0  0  0  0  0  0  0  0  0  0
    2.5531   -0.9608    3.3142 C   0  0  0  0  0  0  0  0  0  0  0  0
    3.1648   -2.0915    3.8548 C   0  0  0  0  0  0  0  0  0  0  0  0
    3.6471   -3.0935    3.0134 C   0  0  0  0  0  0  0  0  0  0  0  0
    3.5213   -2.9622    1.6299 C   0  0  0  0  0  0  0  0  0  0  0  0
    1.7314   -0.2345   -1.7004 C   0  0  0  0  0  0  0  0  0  0  0  0
   -1.9573    0.7546    0.2568 C   0  0  0  0  0  0  0  0  0  0  0  0
   -1.7788   -0.6094   -0.0184 C   0  0  0  0  0  0  0  0  0  0  0  0
   -1.4238   -1.5098    0.9940 C   0  0  0  0  0  0  0  0  0  0  0  0
   -1.2336   -1.0594    2.2991 C   0  0  0  0  0  0  0  0  0  0  0  0
   -0.8984   -1.8268    3.3783 O   0  0  0  0  0  0  0  0  0  0  0  0
   -0.4581   -3.1473    3.1095 C   0  0  0  0  0  0  0  0  0  0  0  0
   -1.5211   -3.8999    2.7277 F   0  0  0  0  0  0  0  0  0  0  0  0
   -0.0189   -3.6727    4.2824 F   0  0  0  0  0  0  0  0  0  0  0  0
   -1.4059    0.2970    2.5799 C   0  0  0  0  0  0  0  0  0  0  0  0
   -1.7555    1.1979    1.5709 C   0  0  0  0  0  0  0  0  0  0  0  0
   -5.0885    1.9070   -0.3301 H   0  0  0  0  0  0  0  0  0  0  0  0
   -5.6224    0.7704   -1.5792 H   0  0  0  0  0  0  0  0  0  0  0  0
   -4.6410    0.1947   -0.2350 H   0  0  0  0  0  0  0  0  0  0  0  0
   -3.2601    0.4178   -2.2922 H   0  0  0  0  0  0  0  0  0  0  0  0
   -4.0991    3.3628   -2.2891 H   0  0  0  0  0  0  0  0  0  0  0  0
   -4.7114    2.1145   -3.3871 H   0  0  0  0  0  0  0  0  0  0  0  0
   -3.0149    2.5846   -3.4568 H   0  0  0  0  0  0  0  0  0  0  0  0
   -2.6607    2.6839   -0.3228 H   0  0  0  0  0  0  0  0  0  0  0  0
    0.5583    2.4707   -3.4700 H   0  0  0  0  0  0  0  0  0  0  0  0
    2.8049    2.8335   -2.7399 H   0  0  0  0  0  0  0  0  0  0  0  0
    4.7579    2.1726   -1.3904 H   0  0  0  0  0  0  0  0  0  0  0  0
    4.7919   -0.0109   -0.2192 H   0  0  0  0  0  0  0  0  0  0  0  0
    1.9209    0.0479    1.5304 H   0  0  0  0  0  0  0  0  0  0  0  0
    2.1654   -0.1859    3.9711 H   0  0  0  0  0  0  0  0  0  0  0  0
    3.2588   -2.1950    4.9333 H   0  0  0  0  0  0  0  0  0  0  0  0
    4.1195   -3.9770    3.4355 H   0  0  0  0  0  0  0  0  0  0  0  0
    3.8945   -3.7456    0.9753 H   0  0  0  0  0  0  0  0  0  0  0  0
    0.9008   -0.9323   -1.7813 H   0  0  0  0  0  0  0  0  0  0  0  0
   -1.9210   -0.9965   -1.0254 H   0  0  0  0  0  0  0  0  0  0  0  0
   -1.3253   -2.5576    0.7258 H   0  0  0  0  0  0  0  0  0  0  0  0
    0.3443   -3.2058    2.3681 H   0  0  0  0  0  0  0  0  0  0  0  0
   -1.2658    0.6594    3.5960 H   0  0  0  0  0  0  0  0  0  0  0  0
   -1.8748    2.2492    1.8272 H   0  0  0  0  0  0  0  0  0  0  0  0
  1  2  1  0
  2  3  1  0
  2  4  1  0
  4  5  1  0
  5  6  2  0
  5  7  1  0
  7  8  1  0
  8  9  1  0
  9 10  3  0
  8 11  1  0
 11 12  2  0
 12 13  1  0
 13 14  2  0
 14 15  1  0
 15 16  1  0
 16 17  1  0
 17 18  2  0
 18 19  1  0
 19 20  2  0
 20 21  1  0
 21 22  2  0
 15 23  2  0
  4 24  1  0
 24 25  2  0
 25 26  1  0
 26 27  2  0
 27 28  1  0
 28 29  1  0
 29 30  1  0
 29 31  1  0
 27 32  1  0
 32 33  2  0
 23 11  1  0
 22 17  1  0
 33 24  1  0
  1 34  1  0
  1 35  1  0
  1 36  1  0
  2 37  1  0
  3 38  1  0
  3 39  1  0
  3 40  1  0
  4 41  1  0
  8 42  1  0
 12 43  1  0
 13 44  1  0
 14 45  1  0
 18 46  1  0
 19 47  1  0
 20 48  1  0
 21 49  1  0
 22 50  1  0
 23 51  1  0
 25 52  1  0
 26 53  1  0
 29 54  1  0
 32 55  1  0
 33 56  1  0
M  END
>  <Energy>  (1) 
95.64975423415814

>  <Real charge>  (1) 
0

>  <Mult>  (1) 
1

$$$$
mol_87 448
     RDKit          3D

 56 58  0  0  0  0  0  0  0  0999 V2000
    4.6298   -2.5585    1.6965 C   0  0  0  0  0  0  0  0  0  0  0  0
    4.0701   -1.5631    0.6686 C   0  0  0  0  0  0  0  0  0  0  0  0
    5.0501   -0.3869    0.5541 C   0  0  0  0  0  0  0  0  0  0  0  0
    2.6390   -1.0973    1.0620 C   0  0  0  0  0  0  0  0  0  0  0  0
    1.6553   -2.2690    1.1003 C   0  0  0  0  0  0  0  0  0  0  0  0
    1.7368   -3.2824    0.4196 O   0  0  0  0  0  0  0  0  0  0  0  0
    0.6351   -1.9940    1.9557 O   0  0  0  0  0  0  0  0  0  0  0  0
   -0.4489   -2.9430    1.9571 C   0  0  0  0  0  0  0  0  0  0  0  0
   -0.4081   -3.7430    3.1991 C   0  0  0  0  0  0  0  0  0  0  0  0
   -0.3708   -4.3645    4.1808 N   0  0  0  0  0  0  0  0  0  0  0  0
   -1.7118   -2.1165    1.7554 C   0  0  0  0  0  0  0  0  0  0  0  0
   -2.5854   -1.7656    2.7988 C   0  0  0  0  0  0  0  0  0  0  0  0
   -3.7170   -0.9814    2.5503 C   0  0  0  0  0  0  0  0  0  0  0  0
   -3.9814   -0.5160    1.2637 C   0  0  0  0  0  0  0  0  0  0  0  0
   -3.1002   -0.8227    0.2292 C   0  0  0  0  0  0  0  0  0  0  0  0
   -3.3192   -0.3983   -1.0585 O   0  0  0  0  0  0  0  0  0  0  0  0
   -3.3570    0.9606   -1.2854 C   0  0  0  0  0  0  0  0  0  0  0  0
   -4.1445    1.3781   -2.3604 C   0  0  0  0  0  0  0  0  0  0  0  0
   -4.2186    2.7317   -2.6913 C   0  0  0  0  0  0  0  0  0  0  0  0
   -3.4976    3.6692   -1.9530 C   0  0  0  0  0  0  0  0  0  0  0  0
   -2.6980    3.2539   -0.8887 C   0  0  0  0  0  0  0  0  0  0  0  0
   -2.6191    1.8995   -0.5588 C   0  0  0  0  0  0  0  0  0  0  0  0
   -1.9892   -1.6322    0.4627 C   0  0  0  0  0  0  0  0  0  0  0  0
    2.0809   -0.0111    0.1494 C   0  0  0  0  0  0  0  0  0  0  0  0
    1.8143    1.2656    0.6600 C   0  0  0  0  0  0  0  0  0  0  0  0
    1.3042    2.2667   -0.1698 C   0  0  0  0  0  0  0  0  0  0  0  0
    1.0337    2.0104   -1.5154 C   0  0  0  0  0  0  0  0  0  0  0  0
    0.5430    3.0767   -2.2147 O   0  0  0  0  0  0  0  0  0  0  0  0
   -0.1130    2.7792   -3.4365 C   0  0  0  0  0  0  0  0  0  0  0  0
   -0.7065    3.9237   -3.8642 F   0  0  0  0  0  0  0  0  0  0  0  0
    0.8160    2.4596   -4.3727 F   0  0  0  0  0  0  0  0  0  0  0  0
    1.3018    0.7443   -2.0336 C   0  0  0  0  0  0  0  0  0  0  0  0
    1.8224   -0.2585   -1.2076 C   0  0  0  0  0  0  0  0  0  0  0  0
    4.6795   -2.1100    2.6947 H   0  0  0  0  0  0  0  0  0  0  0  0
    4.0168   -3.4621    1.7619 H   0  0  0  0  0  0  0  0  0  0  0  0
    5.6415   -2.8739    1.4187 H   0  0  0  0  0  0  0  0  0  0  0  0
    4.0398   -2.0707   -0.3044 H   0  0  0  0  0  0  0  0  0  0  0  0
    5.0867    0.1901    1.4845 H   0  0  0  0  0  0  0  0  0  0  0  0
    4.7727    0.2912   -0.2587 H   0  0  0  0  0  0  0  0  0  0  0  0
    6.0631   -0.7451    0.3398 H   0  0  0  0  0  0  0  0  0  0  0  0
    2.6995   -0.7079    2.0888 H   0  0  0  0  0  0  0  0  0  0  0  0
   -0.3931   -3.6446    1.1144 H   0  0  0  0  0  0  0  0  0  0  0  0
   -2.4071   -2.0940    3.8219 H   0  0  0  0  0  0  0  0  0  0  0  0
   -4.3927   -0.7314    3.3653 H   0  0  0  0  0  0  0  0  0  0  0  0
   -4.8648    0.0874    1.0741 H   0  0  0  0  0  0  0  0  0  0  0  0
   -4.7058    0.6482   -2.9381 H   0  0  0  0  0  0  0  0  0  0  0  0
   -4.8372    3.0553   -3.5246 H   0  0  0  0  0  0  0  0  0  0  0  0
   -3.5507    4.7239   -2.2131 H   0  0  0  0  0  0  0  0  0  0  0  0
   -2.1252    3.9846   -0.3228 H   0  0  0  0  0  0  0  0  0  0  0  0
   -1.9711    1.5945    0.2583 H   0  0  0  0  0  0  0  0  0  0  0  0
   -1.3278   -1.8675   -0.3695 H   0  0  0  0  0  0  0  0  0  0  0  0
    2.0080    1.4984    1.7051 H   0  0  0  0  0  0  0  0  0  0  0  0
    1.1133    3.2563    0.2396 H   0  0  0  0  0  0  0  0  0  0  0  0
   -0.8691    1.9914   -3.3530 H   0  0  0  0  0  0  0  0  0  0  0  0
    1.1451    0.5061   -3.0817 H   0  0  0  0  0  0  0  0  0  0  0  0
    2.0324   -1.2357   -1.6412 H   0  0  0  0  0  0  0  0  0  0  0  0
  1  2  1  0
  2  3  1  0
  2  4  1  0
  4  5  1  0
  5  6  2  0
  5  7  1  0
  7  8  1  0
  8  9  1  0
  9 10  3  0
  8 11  1  0
 11 12  2  0
 12 13  1  0
 13 14  2  0
 14 15  1  0
 15 16  1  0
 16 17  1  0
 17 18  2  0
 18 19  1  0
 19 20  2  0
 20 21  1  0
 21 22  2  0
 15 23  2  0
  4 24  1  0
 24 25  2  0
 25 26  1  0
 26 27  2  0
 27 28  1  0
 28 29  1  0
 29 30  1  0
 29 31  1  0
 27 32  1  0
 32 33  2  0
 23 11  1  0
 22 17  1  0
 33 24  1  0
  1 34  1  0
  1 35  1  0
  1 36  1  0
  2 37  1  0
  3 38  1  0
  3 39  1  0
  3 40  1  0
  4 41  1  0
  8 42  1  0
 12 43  1  0
 13 44  1  0
 14 45  1  0
 18 46  1  0
 19 47  1  0
 20 48  1  0
 21 49  1  0
 22 50  1  0
 23 51  1  0
 25 52  1  0
 26 53  1  0
 29 54  1  0
 32 55  1  0
 33 56  1  0
M  END
>  <Energy>  (2) 
96.10971486289895

>  <Real charge>  (2) 
0

>  <Mult>  (2) 
1

$$$$
mol_87 406
     RDKit          3D

 56 58  0  0  0  0  0  0  0  0999 V2000
   -4.8224   -1.2201    0.3882 C   0  0  0  0  0  0  0  0  0  0  0  0
   -4.0859   -1.3327    1.7263 C   0  0  0  0  0  0  0  0  0  0  0  0
   -4.6488   -0.2982    2.7085 C   0  0  0  0  0  0  0  0  0  0  0  0
   -2.5361   -1.2451    1.6314 C   0  0  0  0  0  0  0  0  0  0  0  0
   -1.9159   -2.5020    1.0112 C   0  0  0  0  0  0  0  0  0  0  0  0
   -2.5262   -3.4837    0.6144 O   0  0  0  0  0  0  0  0  0  0  0  0
   -0.5614   -2.3867    0.9881 O   0  0  0  0  0  0  0  0  0  0  0  0
    0.1605   -3.4769    0.3826 C   0  0  0  0  0  0  0  0  0  0  0  0
    0.5162   -4.4847    1.4039 C   0  0  0  0  0  0  0  0  0  0  0  0
    0.7868   -5.2761    2.2111 N   0  0  0  0  0  0  0  0  0  0  0  0
    1.3980   -2.8950   -0.2899 C   0  0  0  0  0  0  0  0  0  0  0  0
    1.9738   -3.5508   -1.3933 C   0  0  0  0  0  0  0  0  0  0  0  0
    3.1072   -3.0292   -2.0242 C   0  0  0  0  0  0  0  0  0  0  0  0
    3.6782   -1.8425   -1.5685 C   0  0  0  0  0  0  0  0  0  0  0  0
    3.1079   -1.1796   -0.4839 C   0  0  0  0  0  0  0  0  0  0  0  0
    3.6567   -0.0217    0.0083 O   0  0  0  0  0  0  0  0  0  0  0  0
    3.5527    1.1127   -0.7688 C   0  0  0  0  0  0  0  0  0  0  0  0
    4.5109    2.1001   -0.5273 C   0  0  0  0  0  0  0  0  0  0  0  0
    4.4805    3.2990   -1.2407 C   0  0  0  0  0  0  0  0  0  0  0  0
    3.4861    3.5166   -2.1928 C   0  0  0  0  0  0  0  0  0  0  0  0
    2.5190    2.5397   -2.4270 C   0  0  0  0  0  0  0  0  0  0  0  0
    2.5452    1.3412   -1.7108 C   0  0  0  0  0  0  0  0  0  0  0  0
    1.9977   -1.7105    0.1719 C   0  0  0  0  0  0  0  0  0  0  0  0
   -1.9958    0.0360    1.0022 C   0  0  0  0  0  0  0  0  0  0  0  0
   -1.4785    1.0516    1.8207 C   0  0  0  0  0  0  0  0  0  0  0  0
   -0.9485    2.2239    1.2686 C   0  0  0  0  0  0  0  0  0  0  0  0
   -0.9269    2.4005   -0.1137 C   0  0  0  0  0  0  0  0  0  0  0  0
   -0.4558    3.4992   -0.7750 O   0  0  0  0  0  0  0  0  0  0  0  0
    0.4496    4.3230   -0.0581 C   0  0  0  0  0  0  0  0  0  0  0  0
    0.9511    5.2291   -0.9369 F   0  0  0  0  0  0  0  0  0  0  0  0
   -0.2364    5.0353    0.8712 F   0  0  0  0  0  0  0  0  0  0  0  0
   -1.4549    1.4028   -0.9342 C   0  0  0  0  0  0  0  0  0  0  0  0
   -1.9761    0.2279   -0.3863 C   0  0  0  0  0  0  0  0  0  0  0  0
   -5.8855   -1.4501    0.5220 H   0  0  0  0  0  0  0  0  0  0  0  0
   -4.7623   -0.2092   -0.0268 H   0  0  0  0  0  0  0  0  0  0  0  0
   -4.4283   -1.9227   -0.3516 H   0  0  0  0  0  0  0  0  0  0  0  0
   -4.3316   -2.3212    2.1391 H   0  0  0  0  0  0  0  0  0  0  0  0
   -5.7230   -0.4537    2.8569 H   0  0  0  0  0  0  0  0  0  0  0  0
   -4.5088    0.7247    2.3444 H   0  0  0  0  0  0  0  0  0  0  0  0
   -4.1644   -0.3833    3.6869 H   0  0  0  0  0  0  0  0  0  0  0  0
   -2.1705   -1.2824    2.6698 H   0  0  0  0  0  0  0  0  0  0  0  0
   -0.4505   -3.9361   -0.4052 H   0  0  0  0  0  0  0  0  0  0  0  0
    1.5468   -4.4788   -1.7713 H   0  0  0  0  0  0  0  0  0  0  0  0
    3.5471   -3.5505   -2.8713 H   0  0  0  0  0  0  0  0  0  0  0  0
    4.5618   -1.4386   -2.0548 H   0  0  0  0  0  0  0  0  0  0  0  0
    5.2870    1.9321    0.2152 H   0  0  0  0  0  0  0  0  0  0  0  0
    5.2321    4.0620   -1.0546 H   0  0  0  0  0  0  0  0  0  0  0  0
    3.4579    4.4519   -2.7474 H   0  0  0  0  0  0  0  0  0  0  0  0
    1.7364    2.7167   -3.1611 H   0  0  0  0  0  0  0  0  0  0  0  0
    1.7688    0.6047   -1.8962 H   0  0  0  0  0  0  0  0  0  0  0  0
    1.5975   -1.1778    1.0322 H   0  0  0  0  0  0  0  0  0  0  0  0
   -1.4857    0.9432    2.9042 H   0  0  0  0  0  0  0  0  0  0  0  0
   -0.5853    2.9858    1.9521 H   0  0  0  0  0  0  0  0  0  0  0  0
    1.2766    3.7719    0.4029 H   0  0  0  0  0  0  0  0  0  0  0  0
   -1.4576    1.5377   -2.0136 H   0  0  0  0  0  0  0  0  0  0  0  0
   -2.3671   -0.5297   -1.0622 H   0  0  0  0  0  0  0  0  0  0  0  0
  1  2  1  0
  2  3  1  0
  2  4  1  0
  4  5  1  0
  5  6  2  0
  5  7  1  0
  7  8  1  0
  8  9  1  0
  9 10  3  0
  8 11  1  0
 11 12  2  0
 12 13  1  0
 13 14  2  0
 14 15  1  0
 15 16  1  0
 16 17  1  0
 17 18  2  0
 18 19  1  0
 19 20  2  0
 20 21  1  0
 21 22  2  0
 15 23  2  0
  4 24  1  0
 24 25  2  0
 25 26  1  0
 26 27  2  0
 27 28  1  0
 28 29  1  0
 29 30  1  0
 29 31  1  0
 27 32  1  0
 32 33  2  0
 23 11  1  0
 22 17  1  0
 33 24  1  0
  1 34  1  0
  1 35  1  0
  1 36  1  0
  2 37  1  0
  3 38  1  0
  3 39  1  0
  3 40  1  0
  4 41  1  0
  8 42  1  0
 12 43  1  0
 13 44  1  0
 14 45  1  0
 18 46  1  0
 19 47  1  0
 20 48  1  0
 21 49  1  0
 22 50  1  0
 23 51  1  0
 25 52  1  0
 26 53  1  0
 29 54  1  0
 32 55  1  0
 33 56  1  0
M  END
>  <Energy>  (3) 
96.56669868511331

>  <Real charge>  (3) 
0

>  <Mult>  (3) 
1

$$$$
