mol_770 222
     RDKit          3D

 16 16  0  0  0  0  0  0  0  0999 V2000
    2.8620    0.1785   -0.0553 N   0  0  0  0  0  0  0  0  0  0  0  0
    1.7033    0.8936   -0.3920 N   0  0  0  0  0  0  0  0  0  0  0  0
    0.4273    0.3703   -0.0671 C   0  0  0  0  0  0  0  0  0  0  0  0
   -0.6834    1.2265   -0.1162 C   0  0  0  0  0  0  0  0  0  0  0  0
   -1.9736    0.7524    0.1378 C   0  0  0  0  0  0  0  0  0  0  0  0
   -2.1762   -0.5950    0.4217 C   0  0  0  0  0  0  0  0  0  0  0  0
   -1.0913   -1.4673    0.4389 C   0  0  0  0  0  0  0  0  0  0  0  0
    0.1985   -0.9895    0.1839 C   0  0  0  0  0  0  0  0  0  0  0  0
    2.9295   -0.6667   -0.6261 H   0  0  0  0  0  0  0  0  0  0  0  0
    2.8285   -0.1270    0.9201 H   0  0  0  0  0  0  0  0  0  0  0  0
    1.7532    1.9024   -0.2261 H   0  0  0  0  0  0  0  0  0  0  0  0
   -0.5516    2.2786   -0.3558 H   0  0  0  0  0  0  0  0  0  0  0  0
   -2.8186    1.4350    0.1046 H   0  0  0  0  0  0  0  0  0  0  0  0
   -3.1787   -0.9671    0.6157 H   0  0  0  0  0  0  0  0  0  0  0  0
   -1.2469   -2.5238    0.6410 H   0  0  0  0  0  0  0  0  0  0  0  0
    1.0182   -1.7008    0.1813 H   0  0  0  0  0  0  0  0  0  0  0  0
  1  2  1  0
  2  3  1  0
  3  4  2  0
  4  5  1  0
  5  6  2  0
  6  7  1  0
  7  8  2  0
  8  3  1  0
  1  9  1  0
  1 10  1  0
  2 11  1  0
  4 12  1  0
  5 13  1  0
  6 14  1  0
  7 15  1  0
  8 16  1  0
M  END
>  <Energy>  (1) 
45.518328822323305

>  <Real charge>  (1) 
0

>  <Mult>  (1) 
1

$$$$
mol_770 143
     RDKit          3D

 16 16  0  0  0  0  0  0  0  0999 V2000
    2.7245    0.6541    0.2128 N   0  0  0  0  0  0  0  0  0  0  0  0
    1.8647   -0.4311   -0.0414 N   0  0  0  0  0  0  0  0  0  0  0  0
    0.4599   -0.2269    0.0220 C   0  0  0  0  0  0  0  0  0  0  0  0
   -0.3809   -1.3474   -0.0712 C   0  0  0  0  0  0  0  0  0  0  0  0
   -1.7718   -1.2087   -0.0833 C   0  0  0  0  0  0  0  0  0  0  0  0
   -2.3447    0.0584   -0.0230 C   0  0  0  0  0  0  0  0  0  0  0  0
   -1.5268    1.1835    0.0402 C   0  0  0  0  0  0  0  0  0  0  0  0
   -0.1352    1.0411    0.0504 C   0  0  0  0  0  0  0  0  0  0  0  0
    3.6979    0.3613    0.0975 H   0  0  0  0  0  0  0  0  0  0  0  0
    2.5888    1.3657   -0.5106 H   0  0  0  0  0  0  0  0  0  0  0  0
    2.1006   -1.2989    0.4501 H   0  0  0  0  0  0  0  0  0  0  0  0
    0.0460   -2.3445   -0.1416 H   0  0  0  0  0  0  0  0  0  0  0  0
   -2.4045   -2.0898   -0.1477 H   0  0  0  0  0  0  0  0  0  0  0  0
   -3.4255    0.1701   -0.0332 H   0  0  0  0  0  0  0  0  0  0  0  0
   -1.9680    2.1758    0.0792 H   0  0  0  0  0  0  0  0  0  0  0  0
    0.4752    1.9373    0.0997 H   0  0  0  0  0  0  0  0  0  0  0  0
  1  2  1  0
  2  3  1  0
  3  4  2  0
  4  5  1  0
  5  6  2  0
  6  7  1  0
  7  8  2  0
  8  3  1  0
  1  9  1  0
  1 10  1  0
  2 11  1  0
  4 12  1  0
  5 13  1  0
  6 14  1  0
  7 15  1  0
  8 16  1  0
M  END
>  <Energy>  (2) 
45.97090383755298

>  <Real charge>  (2) 
0

>  <Mult>  (2) 
1

$$$$
