mol_288 23
     RDKit          3D

  8  7  0  0  0  0  0  0  0  0999 V2000
    1.5238    1.5843   -0.1039 Cl  0  0  0  0  0  0  0  0  0  0  0  0
    0.7356   -0.0255   -0.2195 C   0  0  0  0  0  0  0  0  0  0  0  0
    1.6972   -1.1527    0.7959 Cl  0  0  0  0  0  0  0  0  0  0  0  0
   -0.7356    0.0255    0.2195 C   0  0  0  0  0  0  0  0  0  0  0  0
   -1.5238   -1.5843    0.1039 Cl  0  0  0  0  0  0  0  0  0  0  0  0
   -1.6972    1.1527   -0.7959 Cl  0  0  0  0  0  0  0  0  0  0  0  0
    0.8337   -0.3603   -1.2569 H   0  0  0  0  0  0  0  0  0  0  0  0
   -0.8337    0.3603    1.2569 H   0  0  0  0  0  0  0  0  0  0  0  0
  1  2  1  0
  2  3  1  0
  2  4  1  0
  4  5  1  0
  4  6  1  0
  2  7  1  0
  4  8  1  0
M  END
>  <Energy>  (1) 
27.43132620811488

>  <Real charge>  (1) 
0

>  <Mult>  (1) 
1

$$$$
mol_288 27
     RDKit          3D

  8  7  0  0  0  0  0  0  0  0999 V2000
   -1.1620    1.3005    1.2569 Cl  0  0  0  0  0  0  0  0  0  0  0  0
   -0.7189    0.2607   -0.1292 C   0  0  0  0  0  0  0  0  0  0  0  0
   -1.9032   -1.0781   -0.2547 Cl  0  0  0  0  0  0  0  0  0  0  0  0
    0.7242   -0.2664   -0.0778 C   0  0  0  0  0  0  0  0  0  0  0  0
    1.9153    1.0653   -0.2146 Cl  0  0  0  0  0  0  0  0  0  0  0  0
    1.0940   -1.2288    1.3836 Cl  0  0  0  0  0  0  0  0  0  0  0  0
   -0.8592    0.8676   -1.0291 H   0  0  0  0  0  0  0  0  0  0  0  0
    0.9098   -0.9209   -0.9350 H   0  0  0  0  0  0  0  0  0  0  0  0
  1  2  1  0
  2  3  1  0
  2  4  1  0
  4  5  1  0
  4  6  1  0
  2  7  1  0
  4  8  1  0
M  END
>  <Energy>  (2) 
27.832086446901442

>  <Real charge>  (2) 
0

>  <Mult>  (2) 
1

$$$$
