mol_486 143
     RDKit          3D

 20 19  0  0  0  0  0  0  0  0999 V2000
   -1.8670   -1.9031    0.3782 C   0  0  0  0  0  0  0  0  0  0  0  0
   -1.4326   -0.7892   -0.3772 O   0  0  0  0  0  0  0  0  0  0  0  0
   -0.2521    0.1200    0.2510 P   0  0  0  0  0  5  0  0  0  0  0  0
   -0.4522    0.4350    1.6989 O   0  0  0  0  0  0  0  0  0  0  0  0
   -0.3119    1.4140   -0.7212 O   0  0  0  0  0  0  0  0  0  0  0  0
   -1.3678    2.3294   -0.4948 C   0  0  0  0  0  0  0  0  0  0  0  0
    1.2715   -0.6918   -0.2470 C   0  0  0  0  0  0  0  0  0  0  0  0
    1.3735   -0.5771   -1.6944 O   0  0  0  0  0  0  0  0  0  0  0  0
    2.5076   -0.1505    0.4834 C   0  0  0  0  0  0  0  0  0  0  0  0
    2.4723   -0.5462    2.2311 Cl  0  0  0  0  0  0  0  0  0  0  0  0
    3.9971   -0.9435   -0.1769 Cl  0  0  0  0  0  0  0  0  0  0  0  0
    2.7159    1.6136    0.2721 Cl  0  0  0  0  0  0  0  0  0  0  0  0
   -1.0182   -2.5340    0.6540 H   0  0  0  0  0  0  0  0  0  0  0  0
   -2.5619   -2.4889   -0.2285 H   0  0  0  0  0  0  0  0  0  0  0  0
   -2.3839   -1.5617    1.2789 H   0  0  0  0  0  0  0  0  0  0  0  0
   -1.3454    3.0900   -1.2790 H   0  0  0  0  0  0  0  0  0  0  0  0
   -1.2368    2.8165    0.4750 H   0  0  0  0  0  0  0  0  0  0  0  0
   -2.3319    1.8148   -0.5272 H   0  0  0  0  0  0  0  0  0  0  0  0
    1.1762   -1.7634   -0.0393 H   0  0  0  0  0  0  0  0  0  0  0  0
    1.0475    0.3160   -1.9371 H   0  0  0  0  0  0  0  0  0  0  0  0
  1  2  1  0
  2  3  1  0
  3  4  2  0
  3  5  1  0
  5  6  1  0
  3  7  1  0
  7  8  1  0
  7  9  1  0
  9 10  1  0
  9 11  1  0
  9 12  1  0
  1 13  1  0
  1 14  1  0
  1 15  1  0
  6 16  1  0
  6 17  1  0
  6 18  1  0
  7 19  1  0
  8 20  1  0
M  END
>  <Energy>  (1) 
15.300615515452412

>  <Real charge>  (1) 
0

>  <Mult>  (1) 
1

$$$$
mol_486 315
     RDKit          3D

 20 19  0  0  0  0  0  0  0  0999 V2000
   -1.1500    2.3509    0.3347 C   0  0  0  0  0  0  0  0  0  0  0  0
   -0.1962    1.3257    0.1192 O   0  0  0  0  0  0  0  0  0  0  0  0
   -0.5945   -0.1537    0.6516 P   0  0  0  0  0  5  0  0  0  0  0  0
   -1.2416   -0.1363    2.0003 O   0  0  0  0  0  0  0  0  0  0  0  0
   -1.5880   -0.6823   -0.5086 O   0  0  0  0  0  0  0  0  0  0  0  0
   -1.1636   -0.7328   -1.8555 C   0  0  0  0  0  0  0  0  0  0  0  0
    0.9351   -1.0843    0.4832 C   0  0  0  0  0  0  0  0  0  0  0  0
    1.6314   -0.5683   -0.6887 O   0  0  0  0  0  0  0  0  0  0  0  0
    1.8023   -1.0442    1.7495 C   0  0  0  0  0  0  0  0  0  0  0  0
    1.0499   -1.9228    3.1144 Cl  0  0  0  0  0  0  0  0  0  0  0  0
    2.1990    0.6306    2.2423 Cl  0  0  0  0  0  0  0  0  0  0  0  0
    3.3778   -1.8817    1.4247 Cl  0  0  0  0  0  0  0  0  0  0  0  0
   -2.1261    2.0514   -0.0561 H   0  0  0  0  0  0  0  0  0  0  0  0
   -1.2252    2.5699    1.4029 H   0  0  0  0  0  0  0  0  0  0  0  0
   -0.8192    3.2510   -0.1892 H   0  0  0  0  0  0  0  0  0  0  0  0
   -2.0441   -0.8574   -2.4912 H   0  0  0  0  0  0  0  0  0  0  0  0
   -0.5040   -1.5906   -2.0068 H   0  0  0  0  0  0  0  0  0  0  0  0
   -0.6559    0.1905   -2.1446 H   0  0  0  0  0  0  0  0  0  0  0  0
    0.6810   -2.1255    0.2535 H   0  0  0  0  0  0  0  0  0  0  0  0
    1.6320    0.4099   -0.6113 H   0  0  0  0  0  0  0  0  0  0  0  0
  1  2  1  0
  2  3  1  0
  3  4  2  0
  3  5  1  0
  5  6  1  0
  3  7  1  0
  7  8  1  0
  7  9  1  0
  9 10  1  0
  9 11  1  0
  9 12  1  0
  1 13  1  0
  1 14  1  0
  1 15  1  0
  6 16  1  0
  6 17  1  0
  6 18  1  0
  7 19  1  0
  8 20  1  0
M  END
>  <Energy>  (2) 
15.519788524777272

>  <Real charge>  (2) 
0

>  <Mult>  (2) 
1

$$$$
mol_486 191
     RDKit          3D

 20 19  0  0  0  0  0  0  0  0999 V2000
   -1.3554    2.5067   -0.0979 C   0  0  0  0  0  0  0  0  0  0  0  0
   -0.3143    1.6300   -0.4832 O   0  0  0  0  0  0  0  0  0  0  0  0
   -0.2827    0.1809    0.2134 P   0  0  0  0  0  5  0  0  0  0  0  0
   -0.4591    0.2019    1.7031 O   0  0  0  0  0  0  0  0  0  0  0  0
   -1.4957   -0.5699   -0.5495 O   0  0  0  0  0  0  0  0  0  0  0  0
   -1.8436   -1.8763   -0.1339 C   0  0  0  0  0  0  0  0  0  0  0  0
    1.2061   -0.6576   -0.3423 C   0  0  0  0  0  0  0  0  0  0  0  0
    1.2566   -1.9183    0.3906 O   0  0  0  0  0  0  0  0  0  0  0  0
    2.4950    0.1588   -0.1716 C   0  0  0  0  0  0  0  0  0  0  0  0
    3.9231   -0.8758   -0.6003 Cl  0  0  0  0  0  0  0  0  0  0  0  0
    2.5719    1.5703   -1.2716 Cl  0  0  0  0  0  0  0  0  0  0  0  0
    2.7398    0.7025    1.5148 Cl  0  0  0  0  0  0  0  0  0  0  0  0
   -2.3290    2.0346   -0.2547 H   0  0  0  0  0  0  0  0  0  0  0  0
   -1.2970    3.4100   -0.7102 H   0  0  0  0  0  0  0  0  0  0  0  0
   -1.2402    2.7837    0.9533 H   0  0  0  0  0  0  0  0  0  0  0  0
   -2.8550   -2.0953   -0.4855 H   0  0  0  0  0  0  0  0  0  0  0  0
   -1.1556   -2.6004   -0.5765 H   0  0  0  0  0  0  0  0  0  0  0  0
   -1.8257   -1.9601    0.9558 H   0  0  0  0  0  0  0  0  0  0  0  0
    1.0805   -0.9252   -1.3978 H   0  0  0  0  0  0  0  0  0  0  0  0
    1.1804   -1.7004    1.3442 H   0  0  0  0  0  0  0  0  0  0  0  0
  1  2  1  0
  2  3  1  0
  3  4  2  0
  3  5  1  0
  5  6  1  0
  3  7  1  0
  7  8  1  0
  7  9  1  0
  9 10  1  0
  9 11  1  0
  9 12  1  0
  1 13  1  0
  1 14  1  0
  1 15  1  0
  6 16  1  0
  6 17  1  0
  6 18  1  0
  7 19  1  0
  8 20  1  0
M  END
>  <Energy>  (3) 
16.24503432813448

>  <Real charge>  (3) 
0

>  <Mult>  (3) 
1

$$$$
