mol_417 167
     RDKit          3D

 16 16  0  0  0  0  0  0  0  0999 V2000
    1.0439    1.7462    0.9237 N   0  0  0  0  0  0  0  0  0  0  0  0
    0.2632    0.6443    0.5305 C   0  0  0  0  0  0  0  0  0  0  0  0
   -0.9979    0.4896    1.1257 C   0  0  0  0  0  0  0  0  0  0  0  0
   -1.8913   -0.4983    0.6967 C   0  0  0  0  0  0  0  0  0  0  0  0
   -1.5591   -1.3310   -0.3685 C   0  0  0  0  0  0  0  0  0  0  0  0
   -0.3369   -1.1678   -1.0162 C   0  0  0  0  0  0  0  0  0  0  0  0
    0.5574   -0.1743   -0.5782 C   0  0  0  0  0  0  0  0  0  0  0  0
    1.8246   -0.0363   -1.2976 N   0  0  0  0  0  4  0  0  0  0  0  0
    2.8151    0.3590   -0.6612 O   0  0  0  0  0  1  0  0  0  0  0  0
    1.8397   -0.3470   -2.4984 O   0  0  0  0  0  0  0  0  0  0  0  0
    2.0364    1.6439    0.6929 H   0  0  0  0  0  0  0  0  0  0  0  0
    0.9145    2.0302    1.8905 H   0  0  0  0  0  0  0  0  0  0  0  0
   -1.3020    1.1491    1.9362 H   0  0  0  0  0  0  0  0  0  0  0  0
   -2.8560   -0.6040    1.1883 H   0  0  0  0  0  0  0  0  0  0  0  0
   -2.2584   -2.0935   -0.7039 H   0  0  0  0  0  0  0  0  0  0  0  0
   -0.0934   -1.8099   -1.8605 H   0  0  0  0  0  0  0  0  0  0  0  0
  1  2  1  0
  2  3  2  0
  3  4  1  0
  4  5  2  0
  5  6  1  0
  6  7  2  0
  7  8  1  0
  8  9  1  0
  8 10  2  0
  7  2  1  0
  1 11  1  0
  1 12  1  0
  3 13  1  0
  4 14  1  0
  5 15  1  0
  6 16  1  0
M  CHG  2   8   1   9  -1
M  END
>  <Energy>  (1) 
64.46159525311174

>  <Real charge>  (1) 
0

>  <Mult>  (1) 
1

$$$$
