mol_1081 51
     RDKit          3D

  8  7  0  0  0  0  0  0  0  0999 V2000
   -1.0536   -1.0049   -1.0980 F   0  0  0  0  0  0  0  0  0  0  0  0
   -0.7488   -0.1842   -0.0519 C   0  0  0  0  0  0  0  0  0  0  0  0
   -1.1669   -0.8401    1.0672 F   0  0  0  0  0  0  0  0  0  0  0  0
   -1.7131    1.3087   -0.2284 Cl  0  0  0  0  0  0  0  0  0  0  0  0
    0.7691    0.0755   -0.0028 C   0  0  0  0  0  0  0  0  0  0  0  0
    1.1912    0.7100   -1.1327 F   0  0  0  0  0  0  0  0  0  0  0  0
    1.4492   -1.1065    0.0342 F   0  0  0  0  0  0  0  0  0  0  0  0
    1.2728    1.0414    1.4125 Cl  0  0  0  0  0  0  0  0  0  0  0  0
  1  2  1  0
  2  3  1  0
  2  4  1  0
  2  5  1  0
  5  6  1  0
  5  7  1  0
  5  8  1  0
M  END
>  <Energy>  (1) 
73.14743162200848

>  <Real charge>  (1) 
0

>  <Mult>  (1) 
1

$$$$
mol_1081 48
     RDKit          3D

  8  7  0  0  0  0  0  0  0  0999 V2000
    1.2292    0.9867   -0.8454 F   0  0  0  0  0  0  0  0  0  0  0  0
    0.7678    0.0465    0.0266 C   0  0  0  0  0  0  0  0  0  0  0  0
    1.1892    0.4412    1.2611 F   0  0  0  0  0  0  0  0  0  0  0  0
    1.5538   -1.5082   -0.3610 Cl  0  0  0  0  0  0  0  0  0  0  0  0
   -0.7678   -0.0465   -0.0266 C   0  0  0  0  0  0  0  0  0  0  0  0
   -1.2292   -0.9867    0.8454 F   0  0  0  0  0  0  0  0  0  0  0  0
   -1.1892   -0.4412   -1.2611 F   0  0  0  0  0  0  0  0  0  0  0  0
   -1.5538    1.5082    0.3610 Cl  0  0  0  0  0  0  0  0  0  0  0  0
  1  2  1  0
  2  3  1  0
  2  4  1  0
  2  5  1  0
  5  6  1  0
  5  7  1  0
  5  8  1  0
M  END
>  <Energy>  (2) 
73.30773045776012

>  <Real charge>  (2) 
0

>  <Mult>  (2) 
1

$$$$
