mol_149 8
     RDKit          3D

 13 12  0  0  0  0  0  0  0  0999 V2000
   -1.8881   -0.2452    0.2398 C   0  0  0  0  0  0  0  0  0  0  0  0
   -0.4808    0.0886   -0.2207 C   0  0  0  0  0  0  0  0  0  0  0  0
    0.5507   -0.0852    0.8788 C   0  0  0  0  0  0  0  0  0  0  0  0
    0.2592   -0.4574    2.0144 O   0  0  0  0  0  0  0  0  0  0  0  0
    1.9769    0.2258    0.5057 C   0  0  0  0  0  0  0  0  0  0  0  0
   -2.6001   -0.1076   -0.5797 H   0  0  0  0  0  0  0  0  0  0  0  0
   -2.1935    0.3997    1.0705 H   0  0  0  0  0  0  0  0  0  0  0  0
   -1.9545   -1.2839    0.5801 H   0  0  0  0  0  0  0  0  0  0  0  0
   -0.4442    1.1285   -0.5619 H   0  0  0  0  0  0  0  0  0  0  0  0
   -0.2040   -0.5644   -1.0550 H   0  0  0  0  0  0  0  0  0  0  0  0
    2.2963   -0.4354   -0.3035 H   0  0  0  0  0  0  0  0  0  0  0  0
    2.0543    1.2701    0.1932 H   0  0  0  0  0  0  0  0  0  0  0  0
    2.6278    0.0665    1.3700 H   0  0  0  0  0  0  0  0  0  0  0  0
  1  2  1  0
  2  3  1  0
  3  4  2  0
  3  5  1  0
  1  6  1  0
  1  7  1  0
  1  8  1  0
  2  9  1  0
  2 10  1  0
  5 11  1  0
  5 12  1  0
  5 13  1  0
M  END
>  <Energy>  (1) 
0.4549607933687247

>  <Real charge>  (1) 
0

>  <Mult>  (1) 
1

$$$$
mol_149 12
     RDKit          3D

 13 12  0  0  0  0  0  0  0  0999 V2000
    1.5964    0.2474   -0.1026 C   0  0  0  0  0  0  0  0  0  0  0  0
    0.5484   -0.7855    0.2596 C   0  0  0  0  0  0  0  0  0  0  0  0
   -0.7549   -0.1282    0.6580 C   0  0  0  0  0  0  0  0  0  0  0  0
   -1.0762   -0.0090    1.8403 O   0  0  0  0  0  0  0  0  0  0  0  0
   -1.6281    0.4032   -0.4482 C   0  0  0  0  0  0  0  0  0  0  0  0
    1.2937    0.8298   -0.9786 H   0  0  0  0  0  0  0  0  0  0  0  0
    2.5488   -0.2401   -0.3321 H   0  0  0  0  0  0  0  0  0  0  0  0
    1.7587    0.9482    0.7230 H   0  0  0  0  0  0  0  0  0  0  0  0
    0.3626   -1.4666   -0.5772 H   0  0  0  0  0  0  0  0  0  0  0  0
    0.8964   -1.3963    1.1001 H   0  0  0  0  0  0  0  0  0  0  0  0
   -2.5869    0.7280   -0.0340 H   0  0  0  0  0  0  0  0  0  0  0  0
   -1.8167   -0.3862   -1.1800 H   0  0  0  0  0  0  0  0  0  0  0  0
   -1.1421    1.2553   -0.9284 H   0  0  0  0  0  0  0  0  0  0  0  0
  1  2  1  0
  2  3  1  0
  3  4  2  0
  3  5  1  0
  1  6  1  0
  1  7  1  0
  1  8  1  0
  2  9  1  0
  2 10  1  0
  5 11  1  0
  5 12  1  0
  5 13  1  0
M  END
>  <Energy>  (2) 
1.2837200817178114

>  <Real charge>  (2) 
0

>  <Mult>  (2) 
1

$$$$
