mol_949 470
     RDKit          3D

 28 27  0  0  0  0  0  0  0  0999 V2000
   -4.8671    0.7789    0.1796 C   0  0  0  0  0  0  0  0  0  0  0  0
   -3.6840   -0.1326   -0.1053 C   0  0  0  0  0  0  0  0  0  0  0  0
   -2.3580    0.5496    0.2299 C   0  0  0  0  0  0  0  0  0  0  0  0
   -1.1705   -0.3706   -0.0581 C   0  0  0  0  0  0  0  0  0  0  0  0
    0.1566    0.3121    0.2772 C   0  0  0  0  0  0  0  0  0  0  0  0
    1.3437   -0.6078   -0.0107 C   0  0  0  0  0  0  0  0  0  0  0  0
    2.6686    0.0734    0.3240 C   0  0  0  0  0  0  0  0  0  0  0  0
    3.8672   -0.8171    0.0480 C   0  0  0  0  0  0  0  0  0  0  0  0
    3.7624   -1.9592   -0.3964 O   0  0  0  0  0  0  0  0  0  0  0  0
    5.2183   -0.2229    0.3507 C   0  0  0  0  0  0  0  0  0  0  0  0
   -4.9006    1.0592    1.2373 H   0  0  0  0  0  0  0  0  0  0  0  0
   -5.8048    0.2711   -0.0671 H   0  0  0  0  0  0  0  0  0  0  0  0
   -4.8094    1.6947   -0.4172 H   0  0  0  0  0  0  0  0  0  0  0  0
   -3.7889   -1.0521    0.4824 H   0  0  0  0  0  0  0  0  0  0  0  0
   -3.6982   -0.4201   -1.1630 H   0  0  0  0  0  0  0  0  0  0  0  0
   -2.3507    0.8388    1.2879 H   0  0  0  0  0  0  0  0  0  0  0  0
   -2.2600    1.4708   -0.3574 H   0  0  0  0  0  0  0  0  0  0  0  0
   -1.2686   -1.2916    0.5294 H   0  0  0  0  0  0  0  0  0  0  0  0
   -1.1779   -0.6595   -1.1162 H   0  0  0  0  0  0  0  0  0  0  0  0
    0.1639    0.6010    1.3353 H   0  0  0  0  0  0  0  0  0  0  0  0
    0.2547    1.2331   -0.3103 H   0  0  0  0  0  0  0  0  0  0  0  0
    1.2456   -1.5314    0.5735 H   0  0  0  0  0  0  0  0  0  0  0  0
    1.3361   -0.9009   -1.0679 H   0  0  0  0  0  0  0  0  0  0  0  0
    2.7815    0.9843   -0.2743 H   0  0  0  0  0  0  0  0  0  0  0  0
    2.6901    0.3471    1.3848 H   0  0  0  0  0  0  0  0  0  0  0  0
    5.3702    0.6711   -0.2590 H   0  0  0  0  0  0  0  0  0  0  0  0
    5.2780    0.0291    1.4123 H   0  0  0  0  0  0  0  0  0  0  0  0
    6.0018   -0.9485    0.1152 H   0  0  0  0  0  0  0  0  0  0  0  0
  1  2  1  0
  2  3  1  0
  3  4  1  0
  4  5  1  0
  5  6  1  0
  6  7  1  0
  7  8  1  0
  8  9  2  0
  8 10  1  0
  1 11  1  0
  1 12  1  0
  1 13  1  0
  2 14  1  0
  2 15  1  0
  3 16  1  0
  3 17  1  0
  4 18  1  0
  4 19  1  0
  5 20  1  0
  5 21  1  0
  6 22  1  0
  6 23  1  0
  7 24  1  0
  7 25  1  0
 10 26  1  0
 10 27  1  0
 10 28  1  0
M  END
>  <Energy>  (1) 
-0.617203292499103

>  <Real charge>  (1) 
0

>  <Mult>  (1) 
1

$$$$
mol_949 139
     RDKit          3D

 28 27  0  0  0  0  0  0  0  0999 V2000
    4.6989    0.0893   -0.2837 C   0  0  0  0  0  0  0  0  0  0  0  0
    3.4413   -0.5609   -0.8378 C   0  0  0  0  0  0  0  0  0  0  0  0
    2.1891   -0.0636   -0.1161 C   0  0  0  0  0  0  0  0  0  0  0  0
    0.9263   -0.7200   -0.6765 C   0  0  0  0  0  0  0  0  0  0  0  0
   -0.3273   -0.2221    0.0459 C   0  0  0  0  0  0  0  0  0  0  0  0
   -1.5901   -0.8835   -0.5149 C   0  0  0  0  0  0  0  0  0  0  0  0
   -2.8575   -0.4223    0.2031 C   0  0  0  0  0  0  0  0  0  0  0  0
   -3.2824    0.9935   -0.1497 C   0  0  0  0  0  0  0  0  0  0  0  0
   -2.7827    1.6308   -1.0754 O   0  0  0  0  0  0  0  0  0  0  0  0
   -4.3936    1.5788    0.6828 C   0  0  0  0  0  0  0  0  0  0  0  0
    4.6627    1.1770   -0.4014 H   0  0  0  0  0  0  0  0  0  0  0  0
    4.8217   -0.1375    0.7802 H   0  0  0  0  0  0  0  0  0  0  0  0
    5.5820   -0.2806   -0.8140 H   0  0  0  0  0  0  0  0  0  0  0  0
    3.5236   -1.6491   -0.7342 H   0  0  0  0  0  0  0  0  0  0  0  0
    3.3654   -0.3417   -1.9092 H   0  0  0  0  0  0  0  0  0  0  0  0
    2.1139    1.0258   -0.2193 H   0  0  0  0  0  0  0  0  0  0  0  0
    2.2718   -0.2815    0.9557 H   0  0  0  0  0  0  0  0  0  0  0  0
    0.8435   -0.5014   -1.7481 H   0  0  0  0  0  0  0  0  0  0  0  0
    1.0019   -1.8093   -0.5733 H   0  0  0  0  0  0  0  0  0  0  0  0
   -0.3955    0.8671   -0.0542 H   0  0  0  0  0  0  0  0  0  0  0  0
   -0.2440   -0.4423    1.1171 H   0  0  0  0  0  0  0  0  0  0  0  0
   -1.5016   -1.9705   -0.3968 H   0  0  0  0  0  0  0  0  0  0  0  0
   -1.6690   -0.6854   -1.5906 H   0  0  0  0  0  0  0  0  0  0  0  0
   -3.6870   -1.0822   -0.0757 H   0  0  0  0  0  0  0  0  0  0  0  0
   -2.7199   -0.4874    1.2879 H   0  0  0  0  0  0  0  0  0  0  0  0
   -4.0865    1.6146    1.7309 H   0  0  0  0  0  0  0  0  0  0  0  0
   -5.2933    0.9684    0.5732 H   0  0  0  0  0  0  0  0  0  0  0  0
   -4.6116    2.5958    0.3450 H   0  0  0  0  0  0  0  0  0  0  0  0
  1  2  1  0
  2  3  1  0
  3  4  1  0
  4  5  1  0
  5  6  1  0
  6  7  1  0
  7  8  1  0
  8  9  2  0
  8 10  1  0
  1 11  1  0
  1 12  1  0
  1 13  1  0
  2 14  1  0
  2 15  1  0
  3 16  1  0
  3 17  1  0
  4 18  1  0
  4 19  1  0
  5 20  1  0
  5 21  1  0
  6 22  1  0
  6 23  1  0
  7 24  1  0
  7 25  1  0
 10 26  1  0
 10 27  1  0
 10 28  1  0
M  END
>  <Energy>  (2) 
-0.5463178376711222

>  <Real charge>  (2) 
0

>  <Mult>  (2) 
1

$$$$
mol_949 109
     RDKit          3D

 28 27  0  0  0  0  0  0  0  0999 V2000
   -4.5653    0.4275   -0.1354 C   0  0  0  0  0  0  0  0  0  0  0  0
   -3.3150    0.0209   -0.8989 C   0  0  0  0  0  0  0  0  0  0  0  0
   -2.0879   -0.0099    0.0118 C   0  0  0  0  0  0  0  0  0  0  0  0
   -0.8324   -0.4192   -0.7600 C   0  0  0  0  0  0  0  0  0  0  0  0
    0.3960   -0.4500    0.1517 C   0  0  0  0  0  0  0  0  0  0  0  0
    1.6519   -0.8591   -0.6230 C   0  0  0  0  0  0  0  0  0  0  0  0
    2.8848   -0.9537    0.2705 C   0  0  0  0  0  0  0  0  0  0  0  0
    3.3175    0.3882    0.8260 C   0  0  0  0  0  0  0  0  0  0  0  0
    3.1943    0.6537    2.0219 O   0  0  0  0  0  0  0  0  0  0  0  0
    3.8856    1.3924   -0.1421 C   0  0  0  0  0  0  0  0  0  0  0  0
   -4.4531    1.4266    0.2975 H   0  0  0  0  0  0  0  0  0  0  0  0
   -4.7763   -0.2770    0.6755 H   0  0  0  0  0  0  0  0  0  0  0  0
   -5.4304    0.4429   -0.8056 H   0  0  0  0  0  0  0  0  0  0  0  0
   -3.1507    0.7265   -1.7216 H   0  0  0  0  0  0  0  0  0  0  0  0
   -3.4722   -0.9677   -1.3457 H   0  0  0  0  0  0  0  0  0  0  0  0
   -2.2590   -0.7141    0.8352 H   0  0  0  0  0  0  0  0  0  0  0  0
   -1.9377    0.9801    0.4594 H   0  0  0  0  0  0  0  0  0  0  0  0
   -0.6611    0.2853   -1.5830 H   0  0  0  0  0  0  0  0  0  0  0  0
   -0.9829   -1.4092   -1.2075 H   0  0  0  0  0  0  0  0  0  0  0  0
    0.5391    0.5403    0.5996 H   0  0  0  0  0  0  0  0  0  0  0  0
    0.2253   -1.1560    0.9735 H   0  0  0  0  0  0  0  0  0  0  0  0
    1.8276   -0.1493   -1.4396 H   0  0  0  0  0  0  0  0  0  0  0  0
    1.4842   -1.8392   -1.0860 H   0  0  0  0  0  0  0  0  0  0  0  0
    3.7278   -1.3698   -0.2928 H   0  0  0  0  0  0  0  0  0  0  0  0
    2.6996   -1.6348    1.1092 H   0  0  0  0  0  0  0  0  0  0  0  0
    4.6470    0.9162   -0.7649 H   0  0  0  0  0  0  0  0  0  0  0  0
    4.3560    2.2092    0.4128 H   0  0  0  0  0  0  0  0  0  0  0  0
    3.0871    1.7994   -0.7662 H   0  0  0  0  0  0  0  0  0  0  0  0
  1  2  1  0
  2  3  1  0
  3  4  1  0
  4  5  1  0
  5  6  1  0
  6  7  1  0
  7  8  1  0
  8  9  2  0
  8 10  1  0
  1 11  1  0
  1 12  1  0
  1 13  1  0
  2 14  1  0
  2 15  1  0
  3 16  1  0
  3 17  1  0
  4 18  1  0
  4 19  1  0
  5 20  1  0
  5 21  1  0
  6 22  1  0
  6 23  1  0
  7 24  1  0
  7 25  1  0
 10 26  1  0
 10 27  1  0
 10 28  1  0
M  END
>  <Energy>  (3) 
-0.03739296974329524

>  <Real charge>  (3) 
0

>  <Mult>  (3) 
1

$$$$
mol_949 329
     RDKit          3D

 28 27  0  0  0  0  0  0  0  0999 V2000
   -4.8088   -0.4159   -0.0229 C   0  0  0  0  0  0  0  0  0  0  0  0
   -3.4109   -0.8735   -0.4076 C   0  0  0  0  0  0  0  0  0  0  0  0
   -2.3441    0.0936    0.1052 C   0  0  0  0  0  0  0  0  0  0  0  0
   -0.9395   -0.3702   -0.2840 C   0  0  0  0  0  0  0  0  0  0  0  0
    0.1282    0.5975    0.2292 C   0  0  0  0  0  0  0  0  0  0  0  0
    1.5323    0.1341   -0.1598 C   0  0  0  0  0  0  0  0  0  0  0  0
    2.5958    1.0976    0.3536 C   0  0  0  0  0  0  0  0  0  0  0  0
    3.9775    0.6665   -0.0892 C   0  0  0  0  0  0  0  0  0  0  0  0
    4.5233    1.1751   -1.0683 O   0  0  0  0  0  0  0  0  0  0  0  0
    4.6416   -0.4356    0.6937 C   0  0  0  0  0  0  0  0  0  0  0  0
   -4.9164   -0.3557    1.0649 H   0  0  0  0  0  0  0  0  0  0  0  0
   -5.5557   -1.1218   -0.3995 H   0  0  0  0  0  0  0  0  0  0  0  0
   -5.0292    0.5696   -0.4454 H   0  0  0  0  0  0  0  0  0  0  0  0
   -3.2345   -1.8745    0.0029 H   0  0  0  0  0  0  0  0  0  0  0  0
   -3.3467   -0.9543   -1.4990 H   0  0  0  0  0  0  0  0  0  0  0  0
   -2.4153    0.1740    1.1967 H   0  0  0  0  0  0  0  0  0  0  0  0
   -2.5275    1.0942   -0.3051 H   0  0  0  0  0  0  0  0  0  0  0  0
   -0.7562   -1.3707    0.1264 H   0  0  0  0  0  0  0  0  0  0  0  0
   -0.8683   -0.4504   -1.3755 H   0  0  0  0  0  0  0  0  0  0  0  0
   -0.0554    1.5979   -0.1811 H   0  0  0  0  0  0  0  0  0  0  0  0
    0.0575    0.6775    1.3208 H   0  0  0  0  0  0  0  0  0  0  0  0
    1.6069    0.0505   -1.2513 H   0  0  0  0  0  0  0  0  0  0  0  0
    1.7130   -0.8697    0.2433 H   0  0  0  0  0  0  0  0  0  0  0  0
    2.4176    2.1095   -0.0287 H   0  0  0  0  0  0  0  0  0  0  0  0
    2.5800    1.1625    1.4471 H   0  0  0  0  0  0  0  0  0  0  0  0
    4.0984   -1.3723    0.5510 H   0  0  0  0  0  0  0  0  0  0  0  0
    5.6700   -0.5646    0.3445 H   0  0  0  0  0  0  0  0  0  0  0  0
    4.6662   -0.1708    1.7536 H   0  0  0  0  0  0  0  0  0  0  0  0
  1  2  1  0
  2  3  1  0
  3  4  1  0
  4  5  1  0
  5  6  1  0
  6  7  1  0
  7  8  1  0
  8  9  2  0
  8 10  1  0
  1 11  1  0
  1 12  1  0
  1 13  1  0
  2 14  1  0
  2 15  1  0
  3 16  1  0
  3 17  1  0
  4 18  1  0
  4 19  1  0
  5 20  1  0
  5 21  1  0
  6 22  1  0
  6 23  1  0
  7 24  1  0
  7 25  1  0
 10 26  1  0
 10 27  1  0
 10 28  1  0
M  END
>  <Energy>  (4) 
0.15743319712488738

>  <Real charge>  (4) 
0

>  <Mult>  (4) 
1

$$$$
mol_949 47
     RDKit          3D

 28 27  0  0  0  0  0  0  0  0999 V2000
   -4.2036    0.8518   -0.6532 C   0  0  0  0  0  0  0  0  0  0  0  0
   -3.8171   -0.3578    0.1838 C   0  0  0  0  0  0  0  0  0  0  0  0
   -2.4482   -0.2247    0.8545 C   0  0  0  0  0  0  0  0  0  0  0  0
   -1.2870   -0.1789   -0.1412 C   0  0  0  0  0  0  0  0  0  0  0  0
    0.0617   -0.1534    0.5818 C   0  0  0  0  0  0  0  0  0  0  0  0
    1.2241   -0.1043   -0.4106 C   0  0  0  0  0  0  0  0  0  0  0  0
    2.5698   -0.0793    0.3105 C   0  0  0  0  0  0  0  0  0  0  0  0
    3.7445   -0.0303   -0.6506 C   0  0  0  0  0  0  0  0  0  0  0  0
    3.6072   -0.0132   -1.8728 O   0  0  0  0  0  0  0  0  0  0  0  0
    5.1140   -0.0029   -0.0228 C   0  0  0  0  0  0  0  0  0  0  0  0
   -4.1576    1.7710   -0.0607 H   0  0  0  0  0  0  0  0  0  0  0  0
   -3.5479    0.9655   -1.5213 H   0  0  0  0  0  0  0  0  0  0  0  0
   -5.2273    0.7394   -1.0247 H   0  0  0  0  0  0  0  0  0  0  0  0
   -4.5740   -0.4963    0.9650 H   0  0  0  0  0  0  0  0  0  0  0  0
   -3.8402   -1.2572   -0.4424 H   0  0  0  0  0  0  0  0  0  0  0  0
   -2.3114   -1.0817    1.5256 H   0  0  0  0  0  0  0  0  0  0  0  0
   -2.4326    0.6740    1.4831 H   0  0  0  0  0  0  0  0  0  0  0  0
   -1.3705    0.7111   -0.7749 H   0  0  0  0  0  0  0  0  0  0  0  0
   -1.3332   -1.0540   -0.8005 H   0  0  0  0  0  0  0  0  0  0  0  0
    0.1568   -1.0445    1.2142 H   0  0  0  0  0  0  0  0  0  0  0  0
    0.1067    0.7198    1.2439 H   0  0  0  0  0  0  0  0  0  0  0  0
    1.1783   -0.9750   -1.0766 H   0  0  0  0  0  0  0  0  0  0  0  0
    1.1297    0.7847   -1.0467 H   0  0  0  0  0  0  0  0  0  0  0  0
    2.6292    0.8015    0.9594 H   0  0  0  0  0  0  0  0  0  0  0  0
    2.6786   -0.9771    0.9290 H   0  0  0  0  0  0  0  0  0  0  0  0
    5.8778    0.0317   -0.8047 H   0  0  0  0  0  0  0  0  0  0  0  0
    5.2610   -0.9058    0.5748 H   0  0  0  0  0  0  0  0  0  0  0  0
    5.2112    0.8859    0.6053 H   0  0  0  0  0  0  0  0  0  0  0  0
  1  2  1  0
  2  3  1  0
  3  4  1  0
  4  5  1  0
  5  6  1  0
  6  7  1  0
  7  8  1  0
  8  9  2  0
  8 10  1  0
  1 11  1  0
  1 12  1  0
  1 13  1  0
  2 14  1  0
  2 15  1  0
  3 16  1  0
  3 17  1  0
  4 18  1  0
  4 19  1  0
  5 20  1  0
  5 21  1  0
  6 22  1  0
  6 23  1  0
  7 24  1  0
  7 25  1  0
 10 26  1  0
 10 27  1  0
 10 28  1  0
M  END
>  <Energy>  (5) 
0.20606677159985096

>  <Real charge>  (5) 
0

>  <Mult>  (5) 
1

$$$$
mol_949 275
     RDKit          3D

 28 27  0  0  0  0  0  0  0  0999 V2000
   -4.6209    0.5067    0.1509 C   0  0  0  0  0  0  0  0  0  0  0  0
   -3.2237    0.3970   -0.4383 C   0  0  0  0  0  0  0  0  0  0  0  0
   -2.2393   -0.2064    0.5633 C   0  0  0  0  0  0  0  0  0  0  0  0
   -0.8343   -0.3155   -0.0337 C   0  0  0  0  0  0  0  0  0  0  0  0
    0.1497   -0.9163    0.9724 C   0  0  0  0  0  0  0  0  0  0  0  0
    1.5461   -1.1513    0.3905 C   0  0  0  0  0  0  0  0  0  0  0  0
    2.2702    0.1389    0.0101 C   0  0  0  0  0  0  0  0  0  0  0  0
    3.7002   -0.1091   -0.4392 C   0  0  0  0  0  0  0  0  0  0  0  0
    4.1831   -1.2359   -0.5397 O   0  0  0  0  0  0  0  0  0  0  0  0
    4.5120    1.1157   -0.7728 C   0  0  0  0  0  0  0  0  0  0  0  0
   -5.0051   -0.4780    0.4356 H   0  0  0  0  0  0  0  0  0  0  0  0
   -5.3083    0.9406   -0.5820 H   0  0  0  0  0  0  0  0  0  0  0  0
   -4.6230    1.1466    1.0391 H   0  0  0  0  0  0  0  0  0  0  0  0
   -3.2621   -0.2222   -1.3420 H   0  0  0  0  0  0  0  0  0  0  0  0
   -2.8824    1.3935   -0.7420 H   0  0  0  0  0  0  0  0  0  0  0  0
   -2.5883   -1.2009    0.8670 H   0  0  0  0  0  0  0  0  0  0  0  0
   -2.2070    0.4147    1.4668 H   0  0  0  0  0  0  0  0  0  0  0  0
   -0.4973    0.6812   -0.3396 H   0  0  0  0  0  0  0  0  0  0  0  0
   -0.8661   -0.9397   -0.9348 H   0  0  0  0  0  0  0  0  0  0  0  0
    0.2230   -0.2662    1.8527 H   0  0  0  0  0  0  0  0  0  0  0  0
   -0.2404   -1.8798    1.3235 H   0  0  0  0  0  0  0  0  0  0  0  0
    2.1416   -1.6926    1.1369 H   0  0  0  0  0  0  0  0  0  0  0  0
    1.4764   -1.8102   -0.4840 H   0  0  0  0  0  0  0  0  0  0  0  0
    2.3018    0.8151    0.8715 H   0  0  0  0  0  0  0  0  0  0  0  0
    1.7516    0.6413   -0.8127 H   0  0  0  0  0  0  0  0  0  0  0  0
    4.5864    1.7572    0.1087 H   0  0  0  0  0  0  0  0  0  0  0  0
    5.5189    0.8189   -1.0793 H   0  0  0  0  0  0  0  0  0  0  0  0
    4.0373    1.6568   -1.5949 H   0  0  0  0  0  0  0  0  0  0  0  0
  1  2  1  0
  2  3  1  0
  3  4  1  0
  4  5  1  0
  5  6  1  0
  6  7  1  0
  7  8  1  0
  8  9  2  0
  8 10  1  0
  1 11  1  0
  1 12  1  0
  1 13  1  0
  2 14  1  0
  2 15  1  0
  3 16  1  0
  3 17  1  0
  4 18  1  0
  4 19  1  0
  5 20  1  0
  5 21  1  0
  6 22  1  0
  6 23  1  0
  7 24  1  0
  7 25  1  0
 10 26  1  0
 10 27  1  0
 10 28  1  0
M  END
>  <Energy>  (6) 
0.2104953249673011

>  <Real charge>  (6) 
0

>  <Mult>  (6) 
1

$$$$
mol_949 107
     RDKit          3D

 28 27  0  0  0  0  0  0  0  0999 V2000
    4.2692    1.0513    0.6961 C   0  0  0  0  0  0  0  0  0  0  0  0
    3.4528    0.3818   -0.3980 C   0  0  0  0  0  0  0  0  0  0  0  0
    2.0502    0.0187    0.0919 C   0  0  0  0  0  0  0  0  0  0  0  0
    1.2333   -0.6510   -1.0153 C   0  0  0  0  0  0  0  0  0  0  0  0
   -0.1405   -1.1401   -0.5478 C   0  0  0  0  0  0  0  0  0  0  0  0
   -1.0860   -0.0063   -0.1468 C   0  0  0  0  0  0  0  0  0  0  0  0
   -2.4750   -0.5407    0.1986 C   0  0  0  0  0  0  0  0  0  0  0  0
   -3.4381    0.5608    0.6055 C   0  0  0  0  0  0  0  0  0  0  0  0
   -3.1184    1.7480    0.6407 O   0  0  0  0  0  0  0  0  0  0  0  0
   -4.8323    0.1211    0.9703 C   0  0  0  0  0  0  0  0  0  0  0  0
    5.2678    1.3015    0.3245 H   0  0  0  0  0  0  0  0  0  0  0  0
    3.7903    1.9763    1.0327 H   0  0  0  0  0  0  0  0  0  0  0  0
    4.3842    0.3894    1.5604 H   0  0  0  0  0  0  0  0  0  0  0  0
    3.3831    1.0567   -1.2590 H   0  0  0  0  0  0  0  0  0  0  0  0
    3.9757   -0.5211   -0.7344 H   0  0  0  0  0  0  0  0  0  0  0  0
    1.5447    0.9284    0.4345 H   0  0  0  0  0  0  0  0  0  0  0  0
    2.1257   -0.6561    0.9531 H   0  0  0  0  0  0  0  0  0  0  0  0
    1.7906   -1.5152   -1.3980 H   0  0  0  0  0  0  0  0  0  0  0  0
    1.1103    0.0423   -1.8562 H   0  0  0  0  0  0  0  0  0  0  0  0
   -0.0174   -1.8346    0.2922 H   0  0  0  0  0  0  0  0  0  0  0  0
   -0.5952   -1.7123   -1.3661 H   0  0  0  0  0  0  0  0  0  0  0  0
   -1.1633    0.7185   -0.9667 H   0  0  0  0  0  0  0  0  0  0  0  0
   -0.6837    0.5336    0.7179 H   0  0  0  0  0  0  0  0  0  0  0  0
   -2.9028   -1.0576   -0.6675 H   0  0  0  0  0  0  0  0  0  0  0  0
   -2.4050   -1.2507    1.0302 H   0  0  0  0  0  0  0  0  0  0  0  0
   -5.4340    0.9919    1.2449 H   0  0  0  0  0  0  0  0  0  0  0  0
   -4.7897   -0.5616    1.8225 H   0  0  0  0  0  0  0  0  0  0  0  0
   -5.2965   -0.3729    0.1133 H   0  0  0  0  0  0  0  0  0  0  0  0
  1  2  1  0
  2  3  1  0
  3  4  1  0
  4  5  1  0
  5  6  1  0
  6  7  1  0
  7  8  1  0
  8  9  2  0
  8 10  1  0
  1 11  1  0
  1 12  1  0
  1 13  1  0
  2 14  1  0
  2 15  1  0
  3 16  1  0
  3 17  1  0
  4 18  1  0
  4 19  1  0
  5 20  1  0
  5 21  1  0
  6 22  1  0
  6 23  1  0
  7 24  1  0
  7 25  1  0
 10 26  1  0
 10 27  1  0
 10 28  1  0
M  END
>  <Energy>  (7) 
0.24714577249151626

>  <Real charge>  (7) 
0

>  <Mult>  (7) 
1

$$$$
mol_949 81
     RDKit          3D

 28 27  0  0  0  0  0  0  0  0999 V2000
    4.4742    0.4816   -0.7949 C   0  0  0  0  0  0  0  0  0  0  0  0
    3.0933    0.4397   -0.1582 C   0  0  0  0  0  0  0  0  0  0  0  0
    2.5232   -0.9792   -0.1571 C   0  0  0  0  0  0  0  0  0  0  0  0
    1.1833   -1.0966    0.5750 C   0  0  0  0  0  0  0  0  0  0  0  0
    0.0462   -0.3368   -0.1117 C   0  0  0  0  0  0  0  0  0  0  0  0
   -1.2887   -0.5808    0.5950 C   0  0  0  0  0  0  0  0  0  0  0  0
   -2.4250    0.1791   -0.0855 C   0  0  0  0  0  0  0  0  0  0  0  0
   -3.7642   -0.0445    0.5945 C   0  0  0  0  0  0  0  0  0  0  0  0
   -3.8990   -0.7620    1.5845 O   0  0  0  0  0  0  0  0  0  0  0  0
   -4.9438    0.6690   -0.0135 C   0  0  0  0  0  0  0  0  0  0  0  0
    4.4377    0.1373   -1.8334 H   0  0  0  0  0  0  0  0  0  0  0  0
    4.8630    1.5047   -0.7894 H   0  0  0  0  0  0  0  0  0  0  0  0
    5.1788   -0.1520   -0.2468 H   0  0  0  0  0  0  0  0  0  0  0  0
    3.1599    0.8157    0.8692 H   0  0  0  0  0  0  0  0  0  0  0  0
    2.4328    1.1156   -0.7116 H   0  0  0  0  0  0  0  0  0  0  0  0
    3.2390   -1.6519    0.3317 H   0  0  0  0  0  0  0  0  0  0  0  0
    2.4111   -1.3346   -1.1887 H   0  0  0  0  0  0  0  0  0  0  0  0
    1.2958   -0.7423    1.6069 H   0  0  0  0  0  0  0  0  0  0  0  0
    0.9188   -2.1598    0.6336 H   0  0  0  0  0  0  0  0  0  0  0  0
   -0.0294   -0.6550   -1.1584 H   0  0  0  0  0  0  0  0  0  0  0  0
    0.2589    0.7380   -0.1125 H   0  0  0  0  0  0  0  0  0  0  0  0
   -1.2130   -0.2699    1.6445 H   0  0  0  0  0  0  0  0  0  0  0  0
   -1.5141   -1.6546    0.5993 H   0  0  0  0  0  0  0  0  0  0  0  0
   -2.5188   -0.1449   -1.1279 H   0  0  0  0  0  0  0  0  0  0  0  0
   -2.2160    1.2545   -0.0712 H   0  0  0  0  0  0  0  0  0  0  0  0
   -5.8489    0.4361    0.5544 H   0  0  0  0  0  0  0  0  0  0  0  0
   -5.0798    0.3378   -1.0459 H   0  0  0  0  0  0  0  0  0  0  0  0
   -4.7751    1.7482    0.0180 H   0  0  0  0  0  0  0  0  0  0  0  0
  1  2  1  0
  2  3  1  0
  3  4  1  0
  4  5  1  0
  5  6  1  0
  6  7  1  0
  7  8  1  0
  8  9  2  0
  8 10  1  0
  1 11  1  0
  1 12  1  0
  1 13  1  0
  2 14  1  0
  2 15  1  0
  3 16  1  0
  3 17  1  0
  4 18  1  0
  4 19  1  0
  5 20  1  0
  5 21  1  0
  6 22  1  0
  6 23  1  0
  7 24  1  0
  7 25  1  0
 10 26  1  0
 10 27  1  0
 10 28  1  0
M  END
>  <Energy>  (8) 
0.2568944708938655

>  <Real charge>  (8) 
0

>  <Mult>  (8) 
1

$$$$
mol_949 315
     RDKit          3D

 28 27  0  0  0  0  0  0  0  0999 V2000
   -4.1091   -0.8625   -0.2080 C   0  0  0  0  0  0  0  0  0  0  0  0
   -3.5395   -0.1568    1.0128 C   0  0  0  0  0  0  0  0  0  0  0  0
   -2.0288   -0.3388    1.1745 C   0  0  0  0  0  0  0  0  0  0  0  0
   -1.2159    0.3169    0.0559 C   0  0  0  0  0  0  0  0  0  0  0  0
    0.2872    0.1976    0.3205 C   0  0  0  0  0  0  0  0  0  0  0  0
    1.1014    0.8541   -0.7989 C   0  0  0  0  0  0  0  0  0  0  0  0
    2.6066    0.7706   -0.5508 C   0  0  0  0  0  0  0  0  0  0  0  0
    3.1876   -0.6178   -0.7619 C   0  0  0  0  0  0  0  0  0  0  0  0
    2.5554   -1.5353   -1.2828 O   0  0  0  0  0  0  0  0  0  0  0  0
    4.6171   -0.8112   -0.3266 C   0  0  0  0  0  0  0  0  0  0  0  0
   -3.7376   -0.4204   -1.1371 H   0  0  0  0  0  0  0  0  0  0  0  0
   -5.2006   -0.7780   -0.2150 H   0  0  0  0  0  0  0  0  0  0  0  0
   -3.8521   -1.9265   -0.2029 H   0  0  0  0  0  0  0  0  0  0  0  0
   -4.0344   -0.5547    1.9069 H   0  0  0  0  0  0  0  0  0  0  0  0
   -3.7839    0.9107    0.9643 H   0  0  0  0  0  0  0  0  0  0  0  0
   -1.7327    0.0981    2.1363 H   0  0  0  0  0  0  0  0  0  0  0  0
   -1.7910   -1.4083    1.2270 H   0  0  0  0  0  0  0  0  0  0  0  0
   -1.4489   -0.1564   -0.9045 H   0  0  0  0  0  0  0  0  0  0  0  0
   -1.4913    1.3752   -0.0267 H   0  0  0  0  0  0  0  0  0  0  0  0
    0.5565   -0.8608    0.4124 H   0  0  0  0  0  0  0  0  0  0  0  0
    0.5298    0.6759    1.2773 H   0  0  0  0  0  0  0  0  0  0  0  0
    0.8199    1.9122   -0.8662 H   0  0  0  0  0  0  0  0  0  0  0  0
    0.8488    0.3954   -1.7624 H   0  0  0  0  0  0  0  0  0  0  0  0
    3.1221    1.4406   -1.2484 H   0  0  0  0  0  0  0  0  0  0  0  0
    2.8382    1.0966    0.4691 H   0  0  0  0  0  0  0  0  0  0  0  0
    4.9258   -1.8421   -0.5207 H   0  0  0  0  0  0  0  0  0  0  0  0
    5.2655   -0.1351   -0.8891 H   0  0  0  0  0  0  0  0  0  0  0  0
    4.7038   -0.6139    0.7447 H   0  0  0  0  0  0  0  0  0  0  0  0
  1  2  1  0
  2  3  1  0
  3  4  1  0
  4  5  1  0
  5  6  1  0
  6  7  1  0
  7  8  1  0
  8  9  2  0
  8 10  1  0
  1 11  1  0
  1 12  1  0
  1 13  1  0
  2 14  1  0
  2 15  1  0
  3 16  1  0
  3 17  1  0
  4 18  1  0
  4 19  1  0
  5 20  1  0
  5 21  1  0
  6 22  1  0
  6 23  1  0
  7 24  1  0
  7 25  1  0
 10 26  1  0
 10 27  1  0
 10 28  1  0
M  END
>  <Energy>  (9) 
0.27453569931503863

>  <Real charge>  (9) 
0

>  <Mult>  (9) 
1

$$$$
mol_949 356
     RDKit          3D

 28 27  0  0  0  0  0  0  0  0999 V2000
   -4.2867   -0.3937    0.1232 C   0  0  0  0  0  0  0  0  0  0  0  0
   -3.5268    0.7738   -0.4871 C   0  0  0  0  0  0  0  0  0  0  0  0
   -2.1179    0.9511    0.0831 C   0  0  0  0  0  0  0  0  0  0  0  0
   -1.1787   -0.2106   -0.2493 C   0  0  0  0  0  0  0  0  0  0  0  0
    0.2418    0.0650    0.2508 C   0  0  0  0  0  0  0  0  0  0  0  0
    1.1808   -1.1006   -0.0756 C   0  0  0  0  0  0  0  0  0  0  0  0
    2.6024   -0.8635    0.4315 C   0  0  0  0  0  0  0  0  0  0  0  0
    3.3797    0.1620   -0.3772 C   0  0  0  0  0  0  0  0  0  0  0  0
    2.9843    0.6028   -1.4552 O   0  0  0  0  0  0  0  0  0  0  0  0
    4.7028    0.5953    0.1987 C   0  0  0  0  0  0  0  0  0  0  0  0
   -3.8267   -1.3516   -0.1361 H   0  0  0  0  0  0  0  0  0  0  0  0
   -5.3153   -0.4088   -0.2514 H   0  0  0  0  0  0  0  0  0  0  0  0
   -4.3249   -0.3109    1.2140 H   0  0  0  0  0  0  0  0  0  0  0  0
   -3.4762    0.6476   -1.5748 H   0  0  0  0  0  0  0  0  0  0  0  0
   -4.0944    1.6935   -0.3011 H   0  0  0  0  0  0  0  0  0  0  0  0
   -1.6984    1.8792   -0.3245 H   0  0  0  0  0  0  0  0  0  0  0  0
   -2.1751    1.0815    1.1706 H   0  0  0  0  0  0  0  0  0  0  0  0
   -1.5474   -1.1346    0.2100 H   0  0  0  0  0  0  0  0  0  0  0  0
   -1.1608   -0.3701   -1.3341 H   0  0  0  0  0  0  0  0  0  0  0  0
    0.2225    0.2268    1.3355 H   0  0  0  0  0  0  0  0  0  0  0  0
    0.6150    0.9888   -0.2057 H   0  0  0  0  0  0  0  0  0  0  0  0
    0.7919   -2.0106    0.3979 H   0  0  0  0  0  0  0  0  0  0  0  0
    1.1880   -1.2824   -1.1570 H   0  0  0  0  0  0  0  0  0  0  0  0
    2.5793   -0.5407    1.4781 H   0  0  0  0  0  0  0  0  0  0  0  0
    3.1634   -1.8034    0.3766 H   0  0  0  0  0  0  0  0  0  0  0  0
    5.1685    1.3332   -0.4605 H   0  0  0  0  0  0  0  0  0  0  0  0
    5.3647   -0.2697    0.2861 H   0  0  0  0  0  0  0  0  0  0  0  0
    4.5442    1.0505    1.1794 H   0  0  0  0  0  0  0  0  0  0  0  0
  1  2  1  0
  2  3  1  0
  3  4  1  0
  4  5  1  0
  5  6  1  0
  6  7  1  0
  7  8  1  0
  8  9  2  0
  8 10  1  0
  1 11  1  0
  1 12  1  0
  1 13  1  0
  2 14  1  0
  2 15  1  0
  3 16  1  0
  3 17  1  0
  4 18  1  0
  4 19  1  0
  5 20  1  0
  5 21  1  0
  6 22  1  0
  6 23  1  0
  7 24  1  0
  7 25  1  0
 10 26  1  0
 10 27  1  0
 10 28  1  0
M  END
>  <Energy>  (10) 
0.27849998949345445

>  <Real charge>  (10) 
0

>  <Mult>  (10) 
1

$$$$
mol_949 424
     RDKit          3D

 28 27  0  0  0  0  0  0  0  0999 V2000
   -4.2160    0.4121   -0.9645 C   0  0  0  0  0  0  0  0  0  0  0  0
   -3.3999   -0.4298    0.0034 C   0  0  0  0  0  0  0  0  0  0  0  0
   -1.8990   -0.2069   -0.1878 C   0  0  0  0  0  0  0  0  0  0  0  0
   -1.0844   -1.0546    0.7919 C   0  0  0  0  0  0  0  0  0  0  0  0
    0.4278   -0.9581    0.5673 C   0  0  0  0  0  0  0  0  0  0  0  0
    0.9989    0.4313    0.8711 C   0  0  0  0  0  0  0  0  0  0  0  0
    2.5236    0.4681    0.7655 C   0  0  0  0  0  0  0  0  0  0  0  0
    3.0411    0.4105   -0.6623 C   0  0  0  0  0  0  0  0  0  0  0  0
    2.3110    0.5368   -1.6440 O   0  0  0  0  0  0  0  0  0  0  0  0
    4.5278    0.2240   -0.8212 C   0  0  0  0  0  0  0  0  0  0  0  0
   -4.0219    1.4792   -0.8163 H   0  0  0  0  0  0  0  0  0  0  0  0
   -3.9760    0.1599   -2.0024 H   0  0  0  0  0  0  0  0  0  0  0  0
   -5.2853    0.2368   -0.8109 H   0  0  0  0  0  0  0  0  0  0  0  0
   -3.6860   -0.1758    1.0307 H   0  0  0  0  0  0  0  0  0  0  0  0
   -3.6422   -1.4880   -0.1489 H   0  0  0  0  0  0  0  0  0  0  0  0
   -1.6742    0.8556   -0.0433 H   0  0  0  0  0  0  0  0  0  0  0  0
   -1.6184   -0.4620   -1.2168 H   0  0  0  0  0  0  0  0  0  0  0  0
   -1.3783   -2.1062    0.6847 H   0  0  0  0  0  0  0  0  0  0  0  0
   -1.3233   -0.7640    1.8221 H   0  0  0  0  0  0  0  0  0  0  0  0
    0.9157   -1.6936    1.2190 H   0  0  0  0  0  0  0  0  0  0  0  0
    0.6608   -1.2489   -0.4634 H   0  0  0  0  0  0  0  0  0  0  0  0
    0.5638    1.1792    0.1993 H   0  0  0  0  0  0  0  0  0  0  0  0
    0.7161    0.7142    1.8924 H   0  0  0  0  0  0  0  0  0  0  0  0
    2.9603   -0.3623    1.3310 H   0  0  0  0  0  0  0  0  0  0  0  0
    2.8897    1.4055    1.1995 H   0  0  0  0  0  0  0  0  0  0  0  0
    4.7844    0.1927   -1.8838 H   0  0  0  0  0  0  0  0  0  0  0  0
    4.8305   -0.7185   -0.3585 H   0  0  0  0  0  0  0  0  0  0  0  0
    5.0535    1.0604   -0.3541 H   0  0  0  0  0  0  0  0  0  0  0  0
  1  2  1  0
  2  3  1  0
  3  4  1  0
  4  5  1  0
  5  6  1  0
  6  7  1  0
  7  8  1  0
  8  9  2  0
  8 10  1  0
  1 11  1  0
  1 12  1  0
  1 13  1  0
  2 14  1  0
  2 15  1  0
  3 16  1  0
  3 17  1  0
  4 18  1  0
  4 19  1  0
  5 20  1  0
  5 21  1  0
  6 22  1  0
  6 23  1  0
  7 24  1  0
  7 25  1  0
 10 26  1  0
 10 27  1  0
 10 28  1  0
M  END
>  <Energy>  (11) 
0.2884320095771077

>  <Real charge>  (11) 
0

>  <Mult>  (11) 
1

$$$$
mol_949 40
     RDKit          3D

 28 27  0  0  0  0  0  0  0  0999 V2000
   -4.0077    1.0406   -0.8239 C   0  0  0  0  0  0  0  0  0  0  0  0
   -2.6366    0.3820   -0.8049 C   0  0  0  0  0  0  0  0  0  0  0  0
   -2.4650   -0.5122    0.4237 C   0  0  0  0  0  0  0  0  0  0  0  0
   -1.1454   -1.2892    0.4319 C   0  0  0  0  0  0  0  0  0  0  0  0
    0.0881   -0.3925    0.5635 C   0  0  0  0  0  0  0  0  0  0  0  0
    1.3678   -1.2277    0.6828 C   0  0  0  0  0  0  0  0  0  0  0  0
    2.6175   -0.3612    0.8321 C   0  0  0  0  0  0  0  0  0  0  0  0
    3.0370    0.3377   -0.4506 C   0  0  0  0  0  0  0  0  0  0  0  0
    2.5505    0.0699   -1.5481 O   0  0  0  0  0  0  0  0  0  0  0  0
    4.1258    1.3705   -0.3169 C   0  0  0  0  0  0  0  0  0  0  0  0
   -4.1556    1.6636    0.0640 H   0  0  0  0  0  0  0  0  0  0  0  0
   -4.1095    1.6784   -1.7075 H   0  0  0  0  0  0  0  0  0  0  0  0
   -4.8037    0.2897   -0.8540 H   0  0  0  0  0  0  0  0  0  0  0  0
   -1.8723    1.1663   -0.8156 H   0  0  0  0  0  0  0  0  0  0  0  0
   -2.5101   -0.2106   -1.7182 H   0  0  0  0  0  0  0  0  0  0  0  0
   -2.5419    0.0921    1.3358 H   0  0  0  0  0  0  0  0  0  0  0  0
   -3.2879   -1.2372    0.4559 H   0  0  0  0  0  0  0  0  0  0  0  0
   -1.1687   -1.9916    1.2744 H   0  0  0  0  0  0  0  0  0  0  0  0
   -1.0687   -1.8932   -0.4804 H   0  0  0  0  0  0  0  0  0  0  0  0
    0.1610    0.2693   -0.3055 H   0  0  0  0  0  0  0  0  0  0  0  0
   -0.0155    0.2456    1.4494 H   0  0  0  0  0  0  0  0  0  0  0  0
    1.4644   -1.8882   -0.1872 H   0  0  0  0  0  0  0  0  0  0  0  0
    1.2874   -1.8733    1.5660 H   0  0  0  0  0  0  0  0  0  0  0  0
    3.4577   -0.9947    1.1386 H   0  0  0  0  0  0  0  0  0  0  0  0
    2.4597    0.3953    1.6086 H   0  0  0  0  0  0  0  0  0  0  0  0
    3.7971    2.1643    0.3584 H   0  0  0  0  0  0  0  0  0  0  0  0
    5.0329    0.8982    0.0681 H   0  0  0  0  0  0  0  0  0  0  0  0
    4.3417    1.8081   -1.2955 H   0  0  0  0  0  0  0  0  0  0  0  0
  1  2  1  0
  2  3  1  0
  3  4  1  0
  4  5  1  0
  5  6  1  0
  6  7  1  0
  7  8  1  0
  8  9  2  0
  8 10  1  0
  1 11  1  0
  1 12  1  0
  1 13  1  0
  2 14  1  0
  2 15  1  0
  3 16  1  0
  3 17  1  0
  4 18  1  0
  4 19  1  0
  5 20  1  0
  5 21  1  0
  6 22  1  0
  6 23  1  0
  7 24  1  0
  7 25  1  0
 10 26  1  0
 10 27  1  0
 10 28  1  0
M  END
>  <Energy>  (12) 
0.30979181484561347

>  <Real charge>  (12) 
0

>  <Mult>  (12) 
1

$$$$
mol_949 235
     RDKit          3D

 28 27  0  0  0  0  0  0  0  0999 V2000
   -4.2358    0.0844   -0.8495 C   0  0  0  0  0  0  0  0  0  0  0  0
   -2.9254    0.3524   -0.1249 C   0  0  0  0  0  0  0  0  0  0  0  0
   -2.2694   -0.9485    0.3394 C   0  0  0  0  0  0  0  0  0  0  0  0
   -1.0045   -0.7286    1.1741 C   0  0  0  0  0  0  0  0  0  0  0  0
    0.1445   -0.0980    0.3834 C   0  0  0  0  0  0  0  0  0  0  0  0
    1.4156   -0.0059    1.2350 C   0  0  0  0  0  0  0  0  0  0  0  0
    2.5753    0.6455    0.4832 C   0  0  0  0  0  0  0  0  0  0  0  0
    3.1924   -0.2440   -0.5833 C   0  0  0  0  0  0  0  0  0  0  0  0
    2.9303   -1.4410   -0.6897 O   0  0  0  0  0  0  0  0  0  0  0  0
    4.1892    0.4154   -1.5008 C   0  0  0  0  0  0  0  0  0  0  0  0
   -4.0742   -0.5404   -1.7338 H   0  0  0  0  0  0  0  0  0  0  0  0
   -4.6874    1.0262   -1.1766 H   0  0  0  0  0  0  0  0  0  0  0  0
   -4.9500   -0.4247   -0.1943 H   0  0  0  0  0  0  0  0  0  0  0  0
   -2.2573    0.8962   -0.8010 H   0  0  0  0  0  0  0  0  0  0  0  0
   -3.1179    1.0015    0.7371 H   0  0  0  0  0  0  0  0  0  0  0  0
   -2.0326   -1.5749   -0.5293 H   0  0  0  0  0  0  0  0  0  0  0  0
   -2.9863   -1.5131    0.9486 H   0  0  0  0  0  0  0  0  0  0  0  0
   -0.6793   -1.7017    1.5628 H   0  0  0  0  0  0  0  0  0  0  0  0
   -1.2422   -0.1046    2.0443 H   0  0  0  0  0  0  0  0  0  0  0  0
    0.3361   -0.6931   -0.5166 H   0  0  0  0  0  0  0  0  0  0  0  0
   -0.1363    0.9082    0.0530 H   0  0  0  0  0  0  0  0  0  0  0  0
    1.1998    0.5953    2.1269 H   0  0  0  0  0  0  0  0  0  0  0  0
    1.7035   -1.0043    1.5857 H   0  0  0  0  0  0  0  0  0  0  0  0
    2.2424    1.5775    0.0133 H   0  0  0  0  0  0  0  0  0  0  0  0
    3.3722    0.8883    1.1953 H   0  0  0  0  0  0  0  0  0  0  0  0
    3.7052    1.2327   -2.0412 H   0  0  0  0  0  0  0  0  0  0  0  0
    5.0300    0.7952   -0.9153 H   0  0  0  0  0  0  0  0  0  0  0  0
    4.5622   -0.3135   -2.2258 H   0  0  0  0  0  0  0  0  0  0  0  0
  1  2  1  0
  2  3  1  0
  3  4  1  0
  4  5  1  0
  5  6  1  0
  6  7  1  0
  7  8  1  0
  8  9  2  0
  8 10  1  0
  1 11  1  0
  1 12  1  0
  1 13  1  0
  2 14  1  0
  2 15  1  0
  3 16  1  0
  3 17  1  0
  4 18  1  0
  4 19  1  0
  5 20  1  0
  5 21  1  0
  6 22  1  0
  6 23  1  0
  7 24  1  0
  7 25  1  0
 10 26  1  0
 10 27  1  0
 10 28  1  0
M  END
>  <Energy>  (13) 
0.3196476392789256

>  <Real charge>  (13) 
0

>  <Mult>  (13) 
1

$$$$
mol_949 97
     RDKit          3D

 28 27  0  0  0  0  0  0  0  0999 V2000
    4.2324    0.9598    0.4065 C   0  0  0  0  0  0  0  0  0  0  0  0
    2.9901    0.5959   -0.3907 C   0  0  0  0  0  0  0  0  0  0  0  0
    1.9552   -0.1171    0.4794 C   0  0  0  0  0  0  0  0  0  0  0  0
    0.7064   -0.4821   -0.3269 C   0  0  0  0  0  0  0  0  0  0  0  0
   -0.3300   -1.1907    0.5483 C   0  0  0  0  0  0  0  0  0  0  0  0
   -1.5473   -1.6998   -0.2335 C   0  0  0  0  0  0  0  0  0  0  0  0
   -2.3951   -0.6107   -0.8895 C   0  0  0  0  0  0  0  0  0  0  0  0
   -3.1209    0.2828    0.1017 C   0  0  0  0  0  0  0  0  0  0  0  0
   -3.2765   -0.0204    1.2835 O   0  0  0  0  0  0  0  0  0  0  0  0
   -3.6959    1.5602   -0.4528 C   0  0  0  0  0  0  0  0  0  0  0  0
    4.7105    0.0652    0.8180 H   0  0  0  0  0  0  0  0  0  0  0  0
    3.9840    1.6295    1.2361 H   0  0  0  0  0  0  0  0  0  0  0  0
    4.9588    1.4686   -0.2349 H   0  0  0  0  0  0  0  0  0  0  0  0
    2.5551    1.5083   -0.8149 H   0  0  0  0  0  0  0  0  0  0  0  0
    3.2773   -0.0475   -1.2305 H   0  0  0  0  0  0  0  0  0  0  0  0
    1.6737    0.5290    1.3199 H   0  0  0  0  0  0  0  0  0  0  0  0
    2.3974   -1.0264    0.9046 H   0  0  0  0  0  0  0  0  0  0  0  0
    0.2777    0.4320   -0.7520 H   0  0  0  0  0  0  0  0  0  0  0  0
    0.9875   -1.1317   -1.1645 H   0  0  0  0  0  0  0  0  0  0  0  0
    0.1437   -2.0539    1.0327 H   0  0  0  0  0  0  0  0  0  0  0  0
   -0.6504   -0.5206    1.3541 H   0  0  0  0  0  0  0  0  0  0  0  0
   -1.2023   -2.3907   -1.0128 H   0  0  0  0  0  0  0  0  0  0  0  0
   -2.1743   -2.2889    0.4472 H   0  0  0  0  0  0  0  0  0  0  0  0
   -1.7810    0.0135   -1.5454 H   0  0  0  0  0  0  0  0  0  0  0  0
   -3.1642   -1.0836   -1.5113 H   0  0  0  0  0  0  0  0  0  0  0  0
   -4.4303    1.3250   -1.2270 H   0  0  0  0  0  0  0  0  0  0  0  0
   -2.8925    2.1739   -0.8677 H   0  0  0  0  0  0  0  0  0  0  0  0
   -4.1892    2.1205    0.3463 H   0  0  0  0  0  0  0  0  0  0  0  0
  1  2  1  0
  2  3  1  0
  3  4  1  0
  4  5  1  0
  5  6  1  0
  6  7  1  0
  7  8  1  0
  8  9  2  0
  8 10  1  0
  1 11  1  0
  1 12  1  0
  1 13  1  0
  2 14  1  0
  2 15  1  0
  3 16  1  0
  3 17  1  0
  4 18  1  0
  4 19  1  0
  5 20  1  0
  5 21  1  0
  6 22  1  0
  6 23  1  0
  7 24  1  0
  7 25  1  0
 10 26  1  0
 10 27  1  0
 10 28  1  0
M  END
>  <Energy>  (14) 
0.3742789858915314

>  <Real charge>  (14) 
0

>  <Mult>  (14) 
1

$$$$
mol_949 306
     RDKit          3D

 28 27  0  0  0  0  0  0  0  0999 V2000
   -4.5511   -0.1033    0.0962 C   0  0  0  0  0  0  0  0  0  0  0  0
   -3.3983    0.3667   -0.7766 C   0  0  0  0  0  0  0  0  0  0  0  0
   -2.0671    0.3090   -0.0259 C   0  0  0  0  0  0  0  0  0  0  0  0
   -0.9114    0.7795   -0.9116 C   0  0  0  0  0  0  0  0  0  0  0  0
    0.4303    0.8542   -0.1762 C   0  0  0  0  0  0  0  0  0  0  0  0
    0.9511   -0.5137    0.2782 C   0  0  0  0  0  0  0  0  0  0  0  0
    2.3395   -0.4243    0.9118 C   0  0  0  0  0  0  0  0  0  0  0  0
    3.4592   -0.1988   -0.0908 C   0  0  0  0  0  0  0  0  0  0  0  0
    3.2949   -0.2824   -1.3069 O   0  0  0  0  0  0  0  0  0  0  0  0
    4.8166    0.1039    0.4887 C   0  0  0  0  0  0  0  0  0  0  0  0
   -4.4020   -1.1386    0.4191 H   0  0  0  0  0  0  0  0  0  0  0  0
   -5.4925   -0.0532   -0.4598 H   0  0  0  0  0  0  0  0  0  0  0  0
   -4.6492    0.5242    0.9878 H   0  0  0  0  0  0  0  0  0  0  0  0
   -3.5949    1.3927   -1.1089 H   0  0  0  0  0  0  0  0  0  0  0  0
   -3.3472   -0.2611   -1.6739 H   0  0  0  0  0  0  0  0  0  0  0  0
   -2.1238    0.9382    0.8705 H   0  0  0  0  0  0  0  0  0  0  0  0
   -1.8900   -0.7192    0.3087 H   0  0  0  0  0  0  0  0  0  0  0  0
   -1.1428    1.7792   -1.3002 H   0  0  0  0  0  0  0  0  0  0  0  0
   -0.8173    0.1175   -1.7810 H   0  0  0  0  0  0  0  0  0  0  0  0
    1.1585    1.3201   -0.8504 H   0  0  0  0  0  0  0  0  0  0  0  0
    0.3363    1.5193    0.6909 H   0  0  0  0  0  0  0  0  0  0  0  0
    0.2667   -0.9302    1.0259 H   0  0  0  0  0  0  0  0  0  0  0  0
    0.9638   -1.2096   -0.5690 H   0  0  0  0  0  0  0  0  0  0  0  0
    2.5591   -1.3669    1.4262 H   0  0  0  0  0  0  0  0  0  0  0  0
    2.3634    0.3825    1.6526 H   0  0  0  0  0  0  0  0  0  0  0  0
    4.7649    1.0181    1.0851 H   0  0  0  0  0  0  0  0  0  0  0  0
    5.5386    0.2512   -0.3193 H   0  0  0  0  0  0  0  0  0  0  0  0
    5.1448   -0.7339    1.1089 H   0  0  0  0  0  0  0  0  0  0  0  0
  1  2  1  0
  2  3  1  0
  3  4  1  0
  4  5  1  0
  5  6  1  0
  6  7  1  0
  7  8  1  0
  8  9  2  0
  8 10  1  0
  1 11  1  0
  1 12  1  0
  1 13  1  0
  2 14  1  0
  2 15  1  0
  3 16  1  0
  3 17  1  0
  4 18  1  0
  4 19  1  0
  5 20  1  0
  5 21  1  0
  6 22  1  0
  6 23  1  0
  7 24  1  0
  7 25  1  0
 10 26  1  0
 10 27  1  0
 10 28  1  0
M  END
>  <Energy>  (15) 
0.3744027530304582

>  <Real charge>  (15) 
0

>  <Mult>  (15) 
1

$$$$
