mol_317 973
     RDKit          3D

 51 50  0  0  0  0  0  0  0  0999 V2000
   -8.0120    2.0569    0.1670 C   0  0  0  0  0  0  0  0  0  0  0  0
   -6.7378    1.7936   -0.6197 C   0  0  0  0  0  0  0  0  0  0  0  0
   -5.7975    0.8544    0.1352 C   0  0  0  0  0  0  0  0  0  0  0  0
   -4.5172    0.5922   -0.6595 C   0  0  0  0  0  0  0  0  0  0  0  0
   -3.5761   -0.3476    0.0960 C   0  0  0  0  0  0  0  0  0  0  0  0
   -2.2956   -0.6096   -0.6987 C   0  0  0  0  0  0  0  0  0  0  0  0
   -1.3540   -1.5498    0.0571 C   0  0  0  0  0  0  0  0  0  0  0  0
   -0.0724   -1.8065   -0.7381 C   0  0  0  0  0  0  0  0  0  0  0  0
    0.8617   -2.8231   -0.0751 C   0  0  0  0  0  0  0  0  0  0  0  0
    1.3714   -2.4476    1.3202 C   0  0  0  0  0  0  0  0  0  0  0  0
    2.0920   -1.1002    1.4249 C   0  0  0  0  0  0  0  0  0  0  0  0
    3.3423   -1.0100    0.5477 C   0  0  0  0  0  0  0  0  0  0  0  0
    4.0796    0.3127    0.7690 C   0  0  0  0  0  0  0  0  0  0  0  0
    5.3282    0.4077   -0.1101 C   0  0  0  0  0  0  0  0  0  0  0  0
    6.0653    1.7311    0.1134 C   0  0  0  0  0  0  0  0  0  0  0  0
    7.3333    1.8331   -0.7271 C   0  0  0  0  0  0  0  0  0  0  0  0
    7.0263    1.8069   -2.1139 O   0  0  0  0  0  0  0  0  0  0  0  0
   -7.7880    2.5229    1.1319 H   0  0  0  0  0  0  0  0  0  0  0  0
   -8.5576    1.1262    0.3529 H   0  0  0  0  0  0  0  0  0  0  0  0
   -8.6696    2.7306   -0.3911 H   0  0  0  0  0  0  0  0  0  0  0  0
   -6.2334    2.7468   -0.8164 H   0  0  0  0  0  0  0  0  0  0  0  0
   -6.9987    1.3579   -1.5911 H   0  0  0  0  0  0  0  0  0  0  0  0
   -5.5431    1.2930    1.1078 H   0  0  0  0  0  0  0  0  0  0  0  0
   -6.3083   -0.0958    0.3331 H   0  0  0  0  0  0  0  0  0  0  0  0
   -4.0064    1.5425   -0.8571 H   0  0  0  0  0  0  0  0  0  0  0  0
   -4.7718    0.1535   -1.6319 H   0  0  0  0  0  0  0  0  0  0  0  0
   -3.3216    0.0911    1.0685 H   0  0  0  0  0  0  0  0  0  0  0  0
   -4.0866   -1.2980    0.2935 H   0  0  0  0  0  0  0  0  0  0  0  0
   -1.7846    0.3407   -0.8959 H   0  0  0  0  0  0  0  0  0  0  0  0
   -2.5505   -1.0480   -1.6712 H   0  0  0  0  0  0  0  0  0  0  0  0
   -1.1110   -1.1068    1.0294 H   0  0  0  0  0  0  0  0  0  0  0  0
   -1.8632   -2.5016    0.2509 H   0  0  0  0  0  0  0  0  0  0  0  0
    0.4572   -0.8617   -0.9062 H   0  0  0  0  0  0  0  0  0  0  0  0
   -0.3389   -2.1897   -1.7313 H   0  0  0  0  0  0  0  0  0  0  0  0
    0.3407   -3.7863   -0.0020 H   0  0  0  0  0  0  0  0  0  0  0  0
    1.7168   -2.9962   -0.7393 H   0  0  0  0  0  0  0  0  0  0  0  0
    2.0508   -3.2390    1.6615 H   0  0  0  0  0  0  0  0  0  0  0  0
    0.5321   -2.4501    2.0258 H   0  0  0  0  0  0  0  0  0  0  0  0
    1.4035   -0.2843    1.1772 H   0  0  0  0  0  0  0  0  0  0  0  0
    2.3797   -0.9512    2.4734 H   0  0  0  0  0  0  0  0  0  0  0  0
    4.0130   -1.8469    0.7764 H   0  0  0  0  0  0  0  0  0  0  0  0
    3.0667   -1.0931   -0.5096 H   0  0  0  0  0  0  0  0  0  0  0  0
    4.3658    0.4019    1.8241 H   0  0  0  0  0  0  0  0  0  0  0  0
    3.4073    1.1496    0.5440 H   0  0  0  0  0  0  0  0  0  0  0  0
    5.0394    0.3149   -1.1638 H   0  0  0  0  0  0  0  0  0  0  0  0
    6.0006   -0.4288    0.1161 H   0  0  0  0  0  0  0  0  0  0  0  0
    6.3295    1.8331    1.1723 H   0  0  0  0  0  0  0  0  0  0  0  0
    5.3927    2.5589   -0.1421 H   0  0  0  0  0  0  0  0  0  0  0  0
    7.8613    2.7673   -0.5107 H   0  0  0  0  0  0  0  0  0  0  0  0
    8.0129    1.0028   -0.5115 H   0  0  0  0  0  0  0  0  0  0  0  0
    6.4257    2.5498   -2.2949 H   0  0  0  0  0  0  0  0  0  0  0  0
  1  2  1  0
  2  3  1  0
  3  4  1  0
  4  5  1  0
  5  6  1  0
  6  7  1  0
  7  8  1  0
  8  9  1  0
  9 10  1  0
 10 11  1  0
 11 12  1  0
 12 13  1  0
 13 14  1  0
 14 15  1  0
 15 16  1  0
 16 17  1  0
  1 18  1  0
  1 19  1  0
  1 20  1  0
  2 21  1  0
  2 22  1  0
  3 23  1  0
  3 24  1  0
  4 25  1  0
  4 26  1  0
  5 27  1  0
  5 28  1  0
  6 29  1  0
  6 30  1  0
  7 31  1  0
  7 32  1  0
  8 33  1  0
  8 34  1  0
  9 35  1  0
  9 36  1  0
 10 37  1  0
 10 38  1  0
 11 39  1  0
 11 40  1  0
 12 41  1  0
 12 42  1  0
 13 43  1  0
 13 44  1  0
 14 45  1  0
 14 46  1  0
 15 47  1  0
 15 48  1  0
 16 49  1  0
 16 50  1  0
 17 51  1  0
M  END
>  <Energy>  (1) 
-2.136874920173111

>  <Real charge>  (1) 
0

>  <Mult>  (1) 
1

$$$$
mol_317 560
     RDKit          3D

 51 50  0  0  0  0  0  0  0  0999 V2000
    7.2865   -2.7662    1.2742 C   0  0  0  0  0  0  0  0  0  0  0  0
    6.0625   -2.1892    0.5792 C   0  0  0  0  0  0  0  0  0  0  0  0
    6.3273   -0.7716    0.0706 C   0  0  0  0  0  0  0  0  0  0  0  0
    5.1647   -0.1874   -0.7370 C   0  0  0  0  0  0  0  0  0  0  0  0
    3.9013    0.0433    0.0951 C   0  0  0  0  0  0  0  0  0  0  0  0
    2.8125    0.7322   -0.7309 C   0  0  0  0  0  0  0  0  0  0  0  0
    1.5468    0.9606    0.0971 C   0  0  0  0  0  0  0  0  0  0  0  0
    0.4587    1.6492   -0.7285 C   0  0  0  0  0  0  0  0  0  0  0  0
   -0.8076    1.8775    0.1000 C   0  0  0  0  0  0  0  0  0  0  0  0
   -1.8963    2.5611   -0.7296 C   0  0  0  0  0  0  0  0  0  0  0  0
   -3.1466    2.9182    0.0800 C   0  0  0  0  0  0  0  0  0  0  0  0
   -3.8678    1.7442    0.7492 C   0  0  0  0  0  0  0  0  0  0  0  0
   -4.3536    0.6833   -0.2403 C   0  0  0  0  0  0  0  0  0  0  0  0
   -5.1654   -0.4039    0.4675 C   0  0  0  0  0  0  0  0  0  0  0  0
   -5.6470   -1.4673   -0.5170 C   0  0  0  0  0  0  0  0  0  0  0  0
   -6.4561   -2.5529    0.1804 C   0  0  0  0  0  0  0  0  0  0  0  0
   -6.8688   -3.5297   -0.7660 O   0  0  0  0  0  0  0  0  0  0  0  0
    8.1384   -2.8200    0.5889 H   0  0  0  0  0  0  0  0  0  0  0  0
    7.0760   -3.7783    1.6338 H   0  0  0  0  0  0  0  0  0  0  0  0
    7.5746   -2.1530    2.1341 H   0  0  0  0  0  0  0  0  0  0  0  0
    5.2262   -2.1907    1.2862 H   0  0  0  0  0  0  0  0  0  0  0  0
    5.7846   -2.8400   -0.2578 H   0  0  0  0  0  0  0  0  0  0  0  0
    6.5567   -0.1112    0.9157 H   0  0  0  0  0  0  0  0  0  0  0  0
    7.2171   -0.7823   -0.5713 H   0  0  0  0  0  0  0  0  0  0  0  0
    5.4922    0.7693   -1.1628 H   0  0  0  0  0  0  0  0  0  0  0  0
    4.9362   -0.8473   -1.5828 H   0  0  0  0  0  0  0  0  0  0  0  0
    3.5166   -0.9126    0.4673 H   0  0  0  0  0  0  0  0  0  0  0  0
    4.1439    0.6598    0.9691 H   0  0  0  0  0  0  0  0  0  0  0  0
    3.1861    1.6940   -1.1027 H   0  0  0  0  0  0  0  0  0  0  0  0
    2.5726    0.1176   -1.6072 H   0  0  0  0  0  0  0  0  0  0  0  0
    1.1726   -0.0010    0.4689 H   0  0  0  0  0  0  0  0  0  0  0  0
    1.7870    1.5749    0.9734 H   0  0  0  0  0  0  0  0  0  0  0  0
    0.8333    2.6107   -1.1002 H   0  0  0  0  0  0  0  0  0  0  0  0
    0.2181    1.0349   -1.6047 H   0  0  0  0  0  0  0  0  0  0  0  0
   -1.1695    0.9126    0.4723 H   0  0  0  0  0  0  0  0  0  0  0  0
   -0.5684    2.4956    0.9737 H   0  0  0  0  0  0  0  0  0  0  0  0
   -1.4929    3.4889   -1.1548 H   0  0  0  0  0  0  0  0  0  0  0  0
   -2.1682    1.9274   -1.5815 H   0  0  0  0  0  0  0  0  0  0  0  0
   -2.8702    3.6419    0.8570 H   0  0  0  0  0  0  0  0  0  0  0  0
   -3.8516    3.4348   -0.5833 H   0  0  0  0  0  0  0  0  0  0  0  0
   -4.7304    2.1454    1.2962 H   0  0  0  0  0  0  0  0  0  0  0  0
   -3.2173    1.2823    1.5007 H   0  0  0  0  0  0  0  0  0  0  0  0
   -4.9699    1.1567   -1.0140 H   0  0  0  0  0  0  0  0  0  0  0  0
   -3.4980    0.2192   -0.7434 H   0  0  0  0  0  0  0  0  0  0  0  0
   -4.5502   -0.8740    1.2444 H   0  0  0  0  0  0  0  0  0  0  0  0
   -6.0290    0.0496    0.9690 H   0  0  0  0  0  0  0  0  0  0  0  0
   -4.7925   -1.9256   -1.0303 H   0  0  0  0  0  0  0  0  0  0  0  0
   -6.2573   -1.0063   -1.3036 H   0  0  0  0  0  0  0  0  0  0  0  0
   -5.8555   -3.0566    0.9442 H   0  0  0  0  0  0  0  0  0  0  0  0
   -7.3473   -2.1386    0.6626 H   0  0  0  0  0  0  0  0  0  0  0  0
   -7.4151   -3.0792   -1.4325 H   0  0  0  0  0  0  0  0  0  0  0  0
  1  2  1  0
  2  3  1  0
  3  4  1  0
  4  5  1  0
  5  6  1  0
  6  7  1  0
  7  8  1  0
  8  9  1  0
  9 10  1  0
 10 11  1  0
 11 12  1  0
 12 13  1  0
 13 14  1  0
 14 15  1  0
 15 16  1  0
 16 17  1  0
  1 18  1  0
  1 19  1  0
  1 20  1  0
  2 21  1  0
  2 22  1  0
  3 23  1  0
  3 24  1  0
  4 25  1  0
  4 26  1  0
  5 27  1  0
  5 28  1  0
  6 29  1  0
  6 30  1  0
  7 31  1  0
  7 32  1  0
  8 33  1  0
  8 34  1  0
  9 35  1  0
  9 36  1  0
 10 37  1  0
 10 38  1  0
 11 39  1  0
 11 40  1  0
 12 41  1  0
 12 42  1  0
 13 43  1  0
 13 44  1  0
 14 45  1  0
 14 46  1  0
 15 47  1  0
 15 48  1  0
 16 49  1  0
 16 50  1  0
 17 51  1  0
M  END
>  <Energy>  (2) 
-2.061354157999379

>  <Real charge>  (2) 
0

>  <Mult>  (2) 
1

$$$$
mol_317 472
     RDKit          3D

 51 50  0  0  0  0  0  0  0  0999 V2000
   -8.5226    1.5501   -0.6205 C   0  0  0  0  0  0  0  0  0  0  0  0
   -7.0557    1.2677   -0.9031 C   0  0  0  0  0  0  0  0  0  0  0  0
   -6.5610    0.0468   -0.1277 C   0  0  0  0  0  0  0  0  0  0  0  0
   -5.0842   -0.2343   -0.4152 C   0  0  0  0  0  0  0  0  0  0  0  0
   -4.5908   -1.4546    0.3653 C   0  0  0  0  0  0  0  0  0  0  0  0
   -3.1506   -1.8514    0.0287 C   0  0  0  0  0  0  0  0  0  0  0  0
   -2.1162   -0.8072    0.4546 C   0  0  0  0  0  0  0  0  0  0  0  0
   -0.6910   -1.3040    0.2008 C   0  0  0  0  0  0  0  0  0  0  0  0
    0.3452   -0.2606    0.6218 C   0  0  0  0  0  0  0  0  0  0  0  0
    1.7695   -0.7573    0.3685 C   0  0  0  0  0  0  0  0  0  0  0  0
    2.8057    0.2863    0.7892 C   0  0  0  0  0  0  0  0  0  0  0  0
    4.2308   -0.2108    0.5358 C   0  0  0  0  0  0  0  0  0  0  0  0
    5.2649    0.8366    0.9533 C   0  0  0  0  0  0  0  0  0  0  0  0
    6.7112    0.3494    0.8250 C   0  0  0  0  0  0  0  0  0  0  0  0
    7.1512   -0.0609   -0.5851 C   0  0  0  0  0  0  0  0  0  0  0  0
    7.0225    1.0397   -1.6328 C   0  0  0  0  0  0  0  0  0  0  0  0
    7.7544    2.1949   -1.2496 O   0  0  0  0  0  0  0  0  0  0  0  0
   -8.6860    1.7489    0.4435 H   0  0  0  0  0  0  0  0  0  0  0  0
   -9.1489    0.7008   -0.9118 H   0  0  0  0  0  0  0  0  0  0  0  0
   -8.8554    2.4269   -1.1849 H   0  0  0  0  0  0  0  0  0  0  0  0
   -6.9215    1.1053   -1.9788 H   0  0  0  0  0  0  0  0  0  0  0  0
   -6.4613    2.1478   -0.6311 H   0  0  0  0  0  0  0  0  0  0  0  0
   -6.7005    0.2128    0.9475 H   0  0  0  0  0  0  0  0  0  0  0  0
   -7.1621   -0.8291   -0.4003 H   0  0  0  0  0  0  0  0  0  0  0  0
   -4.9456   -0.4042   -1.4897 H   0  0  0  0  0  0  0  0  0  0  0  0
   -4.4935    0.6482   -0.1460 H   0  0  0  0  0  0  0  0  0  0  0  0
   -5.2411   -2.3094    0.1413 H   0  0  0  0  0  0  0  0  0  0  0  0
   -4.6781   -1.2658    1.4423 H   0  0  0  0  0  0  0  0  0  0  0  0
   -3.0636   -2.0416   -1.0480 H   0  0  0  0  0  0  0  0  0  0  0  0
   -2.9310   -2.7996    0.5351 H   0  0  0  0  0  0  0  0  0  0  0  0
   -2.2734    0.1253   -0.0989 H   0  0  0  0  0  0  0  0  0  0  0  0
   -2.2409   -0.5790    1.5200 H   0  0  0  0  0  0  0  0  0  0  0  0
   -0.5675   -1.5359   -0.8641 H   0  0  0  0  0  0  0  0  0  0  0  0
   -0.5214   -2.2343    0.7564 H   0  0  0  0  0  0  0  0  0  0  0  0
    0.1765    0.6699    0.0660 H   0  0  0  0  0  0  0  0  0  0  0  0
    0.2210   -0.0284    1.6865 H   0  0  0  0  0  0  0  0  0  0  0  0
    1.9385   -1.6876    0.9243 H   0  0  0  0  0  0  0  0  0  0  0  0
    1.8935   -0.9896   -0.6963 H   0  0  0  0  0  0  0  0  0  0  0  0
    2.6810    0.5186    1.8538 H   0  0  0  0  0  0  0  0  0  0  0  0
    2.6372    1.2165    0.2330 H   0  0  0  0  0  0  0  0  0  0  0  0
    4.4008   -1.1387    1.0950 H   0  0  0  0  0  0  0  0  0  0  0  0
    4.3432   -0.4463   -0.5284 H   0  0  0  0  0  0  0  0  0  0  0  0
    5.0926    1.1115    2.0017 H   0  0  0  0  0  0  0  0  0  0  0  0
    5.1236    1.7531    0.3690 H   0  0  0  0  0  0  0  0  0  0  0  0
    6.8573   -0.5076    1.4945 H   0  0  0  0  0  0  0  0  0  0  0  0
    7.3767    1.1395    1.1940 H   0  0  0  0  0  0  0  0  0  0  0  0
    6.5927   -0.9439   -0.9143 H   0  0  0  0  0  0  0  0  0  0  0  0
    8.2046   -0.3624   -0.5233 H   0  0  0  0  0  0  0  0  0  0  0  0
    5.9783    1.3284   -1.7827 H   0  0  0  0  0  0  0  0  0  0  0  0
    7.4099    0.6925   -2.5962 H   0  0  0  0  0  0  0  0  0  0  0  0
    8.6811    1.9270   -1.1271 H   0  0  0  0  0  0  0  0  0  0  0  0
  1  2  1  0
  2  3  1  0
  3  4  1  0
  4  5  1  0
  5  6  1  0
  6  7  1  0
  7  8  1  0
  8  9  1  0
  9 10  1  0
 10 11  1  0
 11 12  1  0
 12 13  1  0
 13 14  1  0
 14 15  1  0
 15 16  1  0
 16 17  1  0
  1 18  1  0
  1 19  1  0
  1 20  1  0
  2 21  1  0
  2 22  1  0
  3 23  1  0
  3 24  1  0
  4 25  1  0
  4 26  1  0
  5 27  1  0
  5 28  1  0
  6 29  1  0
  6 30  1  0
  7 31  1  0
  7 32  1  0
  8 33  1  0
  8 34  1  0
  9 35  1  0
  9 36  1  0
 10 37  1  0
 10 38  1  0
 11 39  1  0
 11 40  1  0
 12 41  1  0
 12 42  1  0
 13 43  1  0
 13 44  1  0
 14 45  1  0
 14 46  1  0
 15 47  1  0
 15 48  1  0
 16 49  1  0
 16 50  1  0
 17 51  1  0
M  END
>  <Energy>  (3) 
-1.9115808752042132

>  <Real charge>  (3) 
0

>  <Mult>  (3) 
1

$$$$
mol_317 1018
     RDKit          3D

 51 50  0  0  0  0  0  0  0  0999 V2000
   -5.0272    3.3740    0.1652 C   0  0  0  0  0  0  0  0  0  0  0  0
   -5.5044    2.0229   -0.3431 C   0  0  0  0  0  0  0  0  0  0  0  0
   -4.4415    0.9417   -0.1431 C   0  0  0  0  0  0  0  0  0  0  0  0
   -4.9296   -0.4159   -0.6536 C   0  0  0  0  0  0  0  0  0  0  0  0
   -3.8607   -1.5112   -0.5820 C   0  0  0  0  0  0  0  0  0  0  0  0
   -3.4554   -1.8681    0.8502 C   0  0  0  0  0  0  0  0  0  0  0  0
   -2.5440   -3.0973    0.9338 C   0  0  0  0  0  0  0  0  0  0  0  0
   -1.2177   -2.9961    0.1739 C   0  0  0  0  0  0  0  0  0  0  0  0
   -0.3327   -1.8399    0.6437 C   0  0  0  0  0  0  0  0  0  0  0  0
    1.0227   -1.8557   -0.0666 C   0  0  0  0  0  0  0  0  0  0  0  0
    1.9067   -0.6965    0.3965 C   0  0  0  0  0  0  0  0  0  0  0  0
    3.2614   -0.7118   -0.3135 C   0  0  0  0  0  0  0  0  0  0  0  0
    4.1459    0.4481    0.1498 C   0  0  0  0  0  0  0  0  0  0  0  0
    5.4989    0.4325   -0.5647 C   0  0  0  0  0  0  0  0  0  0  0  0
    6.4628    1.5069   -0.0607 C   0  0  0  0  0  0  0  0  0  0  0  0
    6.0026    2.9292   -0.3553 C   0  0  0  0  0  0  0  0  0  0  0  0
    6.9954    3.8529    0.0742 O   0  0  0  0  0  0  0  0  0  0  0  0
   -4.7995    3.3326    1.2352 H   0  0  0  0  0  0  0  0  0  0  0  0
   -4.1260    3.6969   -0.3658 H   0  0  0  0  0  0  0  0  0  0  0  0
   -5.8018    4.1318    0.0119 H   0  0  0  0  0  0  0  0  0  0  0  0
   -5.7545    2.1076   -1.4070 H   0  0  0  0  0  0  0  0  0  0  0  0
   -6.4233    1.7437    0.1854 H   0  0  0  0  0  0  0  0  0  0  0  0
   -4.1942    0.8760    0.9223 H   0  0  0  0  0  0  0  0  0  0  0  0
   -3.5244    1.2262   -0.6730 H   0  0  0  0  0  0  0  0  0  0  0  0
   -5.8158   -0.7283   -0.0880 H   0  0  0  0  0  0  0  0  0  0  0  0
   -5.2433   -0.3134   -1.6999 H   0  0  0  0  0  0  0  0  0  0  0  0
   -4.2554   -2.4074   -1.0763 H   0  0  0  0  0  0  0  0  0  0  0  0
   -2.9832   -1.1918   -1.1555 H   0  0  0  0  0  0  0  0  0  0  0  0
   -4.3587   -2.0755    1.4375 H   0  0  0  0  0  0  0  0  0  0  0  0
   -2.9643   -1.0156    1.3310 H   0  0  0  0  0  0  0  0  0  0  0  0
   -3.0918   -3.9708    0.5585 H   0  0  0  0  0  0  0  0  0  0  0  0
   -2.3321   -3.2993    1.9912 H   0  0  0  0  0  0  0  0  0  0  0  0
   -1.4071   -2.9063   -0.9020 H   0  0  0  0  0  0  0  0  0  0  0  0
   -0.6764   -3.9407    0.3119 H   0  0  0  0  0  0  0  0  0  0  0  0
   -0.1804   -1.9100    1.7274 H   0  0  0  0  0  0  0  0  0  0  0  0
   -0.8283   -0.8829    0.4452 H   0  0  0  0  0  0  0  0  0  0  0  0
    0.8697   -1.7908   -1.1507 H   0  0  0  0  0  0  0  0  0  0  0  0
    1.5310   -2.8071    0.1322 H   0  0  0  0  0  0  0  0  0  0  0  0
    2.0594   -0.7614    1.4807 H   0  0  0  0  0  0  0  0  0  0  0  0
    1.3986    0.2550    0.1979 H   0  0  0  0  0  0  0  0  0  0  0  0
    3.7691   -1.6635   -0.1147 H   0  0  0  0  0  0  0  0  0  0  0  0
    3.1089   -0.6466   -1.3977 H   0  0  0  0  0  0  0  0  0  0  0  0
    4.3014    0.3807    1.2333 H   0  0  0  0  0  0  0  0  0  0  0  0
    3.6281    1.3936   -0.0467 H   0  0  0  0  0  0  0  0  0  0  0  0
    5.9707   -0.5469   -0.4171 H   0  0  0  0  0  0  0  0  0  0  0  0
    5.3490    0.5509   -1.6448 H   0  0  0  0  0  0  0  0  0  0  0  0
    7.4441    1.3474   -0.5255 H   0  0  0  0  0  0  0  0  0  0  0  0
    6.6283    1.3919    1.0178 H   0  0  0  0  0  0  0  0  0  0  0  0
    5.8305    3.0792   -1.4259 H   0  0  0  0  0  0  0  0  0  0  0  0
    5.0794    3.1684    0.1793 H   0  0  0  0  0  0  0  0  0  0  0  0
    7.8091    3.6603   -0.4221 H   0  0  0  0  0  0  0  0  0  0  0  0
  1  2  1  0
  2  3  1  0
  3  4  1  0
  4  5  1  0
  5  6  1  0
  6  7  1  0
  7  8  1  0
  8  9  1  0
  9 10  1  0
 10 11  1  0
 11 12  1  0
 12 13  1  0
 13 14  1  0
 14 15  1  0
 15 16  1  0
 16 17  1  0
  1 18  1  0
  1 19  1  0
  1 20  1  0
  2 21  1  0
  2 22  1  0
  3 23  1  0
  3 24  1  0
  4 25  1  0
  4 26  1  0
  5 27  1  0
  5 28  1  0
  6 29  1  0
  6 30  1  0
  7 31  1  0
  7 32  1  0
  8 33  1  0
  8 34  1  0
  9 35  1  0
  9 36  1  0
 10 37  1  0
 10 38  1  0
 11 39  1  0
 11 40  1  0
 12 41  1  0
 12 42  1  0
 13 43  1  0
 13 44  1  0
 14 45  1  0
 14 46  1  0
 15 47  1  0
 15 48  1  0
 16 49  1  0
 16 50  1  0
 17 51  1  0
M  END
>  <Energy>  (4) 
-1.3920510855614452

>  <Real charge>  (4) 
0

>  <Mult>  (4) 
1

$$$$
mol_317 927
     RDKit          3D

 51 50  0  0  0  0  0  0  0  0999 V2000
   -8.4283    1.6280   -0.5354 C   0  0  0  0  0  0  0  0  0  0  0  0
   -7.5657    0.4092   -0.8223 C   0  0  0  0  0  0  0  0  0  0  0  0
   -6.0887    0.6890   -0.5404 C   0  0  0  0  0  0  0  0  0  0  0  0
   -5.2276   -0.5430   -0.8278 C   0  0  0  0  0  0  0  0  0  0  0  0
   -3.7241   -0.2869   -0.6790 C   0  0  0  0  0  0  0  0  0  0  0  0
   -3.2959   -0.0085    0.7643 C   0  0  0  0  0  0  0  0  0  0  0  0
   -1.7924    0.2478    0.9130 C   0  0  0  0  0  0  0  0  0  0  0  0
   -0.9312   -0.9841    0.6249 C   0  0  0  0  0  0  0  0  0  0  0  0
    0.5478   -0.7039    0.9069 C   0  0  0  0  0  0  0  0  0  0  0  0
    1.4103   -1.9330    0.6112 C   0  0  0  0  0  0  0  0  0  0  0  0
    2.8839   -1.7470    0.9841 C   0  0  0  0  0  0  0  0  0  0  0  0
    3.5973   -0.6911    0.1368 C   0  0  0  0  0  0  0  0  0  0  0  0
    5.0895   -0.6286    0.4712 C   0  0  0  0  0  0  0  0  0  0  0  0
    5.8050    0.4291   -0.3717 C   0  0  0  0  0  0  0  0  0  0  0  0
    7.2980    0.4893   -0.0370 C   0  0  0  0  0  0  0  0  0  0  0  0
    8.0387    1.5127   -0.8906 C   0  0  0  0  0  0  0  0  0  0  0  0
    7.5493    2.8243   -0.6493 O   0  0  0  0  0  0  0  0  0  0  0  0
   -8.1295    2.4759   -1.1600 H   0  0  0  0  0  0  0  0  0  0  0  0
   -8.3466    1.9283    0.5141 H   0  0  0  0  0  0  0  0  0  0  0  0
   -9.4795    1.4059   -0.7442 H   0  0  0  0  0  0  0  0  0  0  0  0
   -7.6963    0.1158   -1.8704 H   0  0  0  0  0  0  0  0  0  0  0  0
   -7.9101   -0.4287   -0.2051 H   0  0  0  0  0  0  0  0  0  0  0  0
   -5.7496    1.5279   -1.1601 H   0  0  0  0  0  0  0  0  0  0  0  0
   -5.9764    0.9916    0.5065 H   0  0  0  0  0  0  0  0  0  0  0  0
   -5.5276   -1.3676   -0.1698 H   0  0  0  0  0  0  0  0  0  0  0  0
   -5.4152   -0.8762   -1.8563 H   0  0  0  0  0  0  0  0  0  0  0  0
   -3.4281    0.5503   -1.3225 H   0  0  0  0  0  0  0  0  0  0  0  0
   -3.2001   -1.1740   -1.0517 H   0  0  0  0  0  0  0  0  0  0  0  0
   -3.5917   -0.8457    1.4078 H   0  0  0  0  0  0  0  0  0  0  0  0
   -3.8199    0.8786    1.1372 H   0  0  0  0  0  0  0  0  0  0  0  0
   -1.6045    0.5806    1.9416 H   0  0  0  0  0  0  0  0  0  0  0  0
   -1.4927    1.0727    0.2552 H   0  0  0  0  0  0  0  0  0  0  0  0
   -1.2706   -1.8227    1.2447 H   0  0  0  0  0  0  0  0  0  0  0  0
   -1.0433   -1.2860   -0.4221 H   0  0  0  0  0  0  0  0  0  0  0  0
    0.8745    0.1418    0.2916 H   0  0  0  0  0  0  0  0  0  0  0  0
    0.6727   -0.4115    1.9564 H   0  0  0  0  0  0  0  0  0  0  0  0
    1.0206   -2.7880    1.1778 H   0  0  0  0  0  0  0  0  0  0  0  0
    1.3300   -2.1955   -0.4507 H   0  0  0  0  0  0  0  0  0  0  0  0
    2.9644   -1.4861    2.0464 H   0  0  0  0  0  0  0  0  0  0  0  0
    3.3920   -2.7110    0.8567 H   0  0  0  0  0  0  0  0  0  0  0  0
    3.1507    0.2943    0.3098 H   0  0  0  0  0  0  0  0  0  0  0  0
    3.4693   -0.9250   -0.9270 H   0  0  0  0  0  0  0  0  0  0  0  0
    5.2177   -0.3983    1.5359 H   0  0  0  0  0  0  0  0  0  0  0  0
    5.5472   -1.6095    0.2948 H   0  0  0  0  0  0  0  0  0  0  0  0
    5.6773    0.1977   -1.4362 H   0  0  0  0  0  0  0  0  0  0  0  0
    5.3435    1.4081   -0.1958 H   0  0  0  0  0  0  0  0  0  0  0  0
    7.7511   -0.4972   -0.1885 H   0  0  0  0  0  0  0  0  0  0  0  0
    7.4135    0.7484    1.0224 H   0  0  0  0  0  0  0  0  0  0  0  0
    9.1090    1.4987   -0.6614 H   0  0  0  0  0  0  0  0  0  0  0  0
    7.9182    1.2933   -1.9561 H   0  0  0  0  0  0  0  0  0  0  0  0
    7.6643    3.0100    0.2983 H   0  0  0  0  0  0  0  0  0  0  0  0
  1  2  1  0
  2  3  1  0
  3  4  1  0
  4  5  1  0
  5  6  1  0
  6  7  1  0
  7  8  1  0
  8  9  1  0
  9 10  1  0
 10 11  1  0
 11 12  1  0
 12 13  1  0
 13 14  1  0
 14 15  1  0
 15 16  1  0
 16 17  1  0
  1 18  1  0
  1 19  1  0
  1 20  1  0
  2 21  1  0
  2 22  1  0
  3 23  1  0
  3 24  1  0
  4 25  1  0
  4 26  1  0
  5 27  1  0
  5 28  1  0
  6 29  1  0
  6 30  1  0
  7 31  1  0
  7 32  1  0
  8 33  1  0
  8 34  1  0
  9 35  1  0
  9 36  1  0
 10 37  1  0
 10 38  1  0
 11 39  1  0
 11 40  1  0
 12 41  1  0
 12 42  1  0
 13 43  1  0
 13 44  1  0
 14 45  1  0
 14 46  1  0
 15 47  1  0
 15 48  1  0
 16 49  1  0
 16 50  1  0
 17 51  1  0
M  END
>  <Energy>  (5) 
-1.3065174624129212

>  <Real charge>  (5) 
0

>  <Mult>  (5) 
1

$$$$
mol_317 424
     RDKit          3D

 51 50  0  0  0  0  0  0  0  0999 V2000
    7.6469   -0.2592   -0.0414 C   0  0  0  0  0  0  0  0  0  0  0  0
    6.3935    0.5909    0.1011 C   0  0  0  0  0  0  0  0  0  0  0  0
    5.5521    0.1466    1.2977 C   0  0  0  0  0  0  0  0  0  0  0  0
    4.3375    1.0433    1.5561 C   0  0  0  0  0  0  0  0  0  0  0  0
    3.3276    1.1476    0.4091 C   0  0  0  0  0  0  0  0  0  0  0  0
    2.7172   -0.1975    0.0104 C   0  0  0  0  0  0  0  0  0  0  0  0
    1.6328   -0.0196   -1.0559 C   0  0  0  0  0  0  0  0  0  0  0  0
    1.0221   -1.3647   -1.4542 C   0  0  0  0  0  0  0  0  0  0  0  0
    0.0112   -1.2604   -2.6003 C   0  0  0  0  0  0  0  0  0  0  0  0
   -1.2013   -0.3606   -2.3425 C   0  0  0  0  0  0  0  0  0  0  0  0
   -2.0414   -0.7990   -1.1414 C   0  0  0  0  0  0  0  0  0  0  0  0
   -3.2986    0.0623   -1.0009 C   0  0  0  0  0  0  0  0  0  0  0  0
   -4.1376   -0.3704    0.2027 C   0  0  0  0  0  0  0  0  0  0  0  0
   -5.3943    0.4907    0.3435 C   0  0  0  0  0  0  0  0  0  0  0  0
   -6.2323    0.0572    1.5495 C   0  0  0  0  0  0  0  0  0  0  0  0
   -7.4728    0.9250    1.7307 C   0  0  0  0  0  0  0  0  0  0  0  0
   -8.3411    0.8090    0.6123 O   0  0  0  0  0  0  0  0  0  0  0  0
    8.2330    0.0718   -0.9045 H   0  0  0  0  0  0  0  0  0  0  0  0
    7.3909   -1.3133   -0.1885 H   0  0  0  0  0  0  0  0  0  0  0  0
    8.2789   -0.1794    0.8488 H   0  0  0  0  0  0  0  0  0  0  0  0
    5.8118    0.5129   -0.8235 H   0  0  0  0  0  0  0  0  0  0  0  0
    6.6831    1.6415    0.2183 H   0  0  0  0  0  0  0  0  0  0  0  0
    6.1779    0.1576    2.1992 H   0  0  0  0  0  0  0  0  0  0  0  0
    5.2308   -0.8925    1.1619 H   0  0  0  0  0  0  0  0  0  0  0  0
    4.6891    2.0538    1.7996 H   0  0  0  0  0  0  0  0  0  0  0  0
    3.8200    0.6748    2.4507 H   0  0  0  0  0  0  0  0  0  0  0  0
    2.5249    1.8250    0.7267 H   0  0  0  0  0  0  0  0  0  0  0  0
    3.7963    1.6169   -0.4635 H   0  0  0  0  0  0  0  0  0  0  0  0
    3.4963   -0.8621   -0.3794 H   0  0  0  0  0  0  0  0  0  0  0  0
    2.2862   -0.6826    0.8945 H   0  0  0  0  0  0  0  0  0  0  0  0
    0.8539    0.6452   -0.6661 H   0  0  0  0  0  0  0  0  0  0  0  0
    2.0638    0.4652   -1.9401 H   0  0  0  0  0  0  0  0  0  0  0  0
    0.5542   -1.8341   -0.5814 H   0  0  0  0  0  0  0  0  0  0  0  0
    1.8246   -2.0421   -1.7726 H   0  0  0  0  0  0  0  0  0  0  0  0
   -0.3428   -2.2706   -2.8415 H   0  0  0  0  0  0  0  0  0  0  0  0
    0.5284   -0.8947   -3.4962 H   0  0  0  0  0  0  0  0  0  0  0  0
   -0.8776    0.6782   -2.2111 H   0  0  0  0  0  0  0  0  0  0  0  0
   -1.8291   -0.3739   -3.2426 H   0  0  0  0  0  0  0  0  0  0  0  0
   -2.3281   -1.8511   -1.2575 H   0  0  0  0  0  0  0  0  0  0  0  0
   -1.4509   -0.7214   -0.2217 H   0  0  0  0  0  0  0  0  0  0  0  0
   -3.9007   -0.0141   -1.9145 H   0  0  0  0  0  0  0  0  0  0  0  0
   -3.0116    1.1150   -0.8894 H   0  0  0  0  0  0  0  0  0  0  0  0
   -4.4243   -1.4232    0.0912 H   0  0  0  0  0  0  0  0  0  0  0  0
   -3.5357   -0.2940    1.1164 H   0  0  0  0  0  0  0  0  0  0  0  0
   -5.1072    1.5432    0.4564 H   0  0  0  0  0  0  0  0  0  0  0  0
   -5.9920    0.4150   -0.5727 H   0  0  0  0  0  0  0  0  0  0  0  0
   -5.6243    0.1087    2.4601 H   0  0  0  0  0  0  0  0  0  0  0  0
   -6.5368   -0.9874    1.4124 H   0  0  0  0  0  0  0  0  0  0  0  0
   -7.1994    1.9788    1.8436 H   0  0  0  0  0  0  0  0  0  0  0  0
   -8.0246    0.6211    2.6259 H   0  0  0  0  0  0  0  0  0  0  0  0
   -8.5803   -0.1293    0.5236 H   0  0  0  0  0  0  0  0  0  0  0  0
  1  2  1  0
  2  3  1  0
  3  4  1  0
  4  5  1  0
  5  6  1  0
  6  7  1  0
  7  8  1  0
  8  9  1  0
  9 10  1  0
 10 11  1  0
 11 12  1  0
 12 13  1  0
 13 14  1  0
 14 15  1  0
 15 16  1  0
 16 17  1  0
  1 18  1  0
  1 19  1  0
  1 20  1  0
  2 21  1  0
  2 22  1  0
  3 23  1  0
  3 24  1  0
  4 25  1  0
  4 26  1  0
  5 27  1  0
  5 28  1  0
  6 29  1  0
  6 30  1  0
  7 31  1  0
  7 32  1  0
  8 33  1  0
  8 34  1  0
  9 35  1  0
  9 36  1  0
 10 37  1  0
 10 38  1  0
 11 39  1  0
 11 40  1  0
 12 41  1  0
 12 42  1  0
 13 43  1  0
 13 44  1  0
 14 45  1  0
 14 46  1  0
 15 47  1  0
 15 48  1  0
 16 49  1  0
 16 50  1  0
 17 51  1  0
M  END
>  <Energy>  (6) 
-1.2501722651588627

>  <Real charge>  (6) 
0

>  <Mult>  (6) 
1

$$$$
mol_317 493
     RDKit          3D

 51 50  0  0  0  0  0  0  0  0999 V2000
   -9.1864   -0.2545   -0.5698 C   0  0  0  0  0  0  0  0  0  0  0  0
   -7.8035   -0.8616   -0.3953 C   0  0  0  0  0  0  0  0  0  0  0  0
   -6.7421    0.2163   -0.1772 C   0  0  0  0  0  0  0  0  0  0  0  0
   -5.3525   -0.3986   -0.0020 C   0  0  0  0  0  0  0  0  0  0  0  0
   -4.2902    0.6801    0.2161 C   0  0  0  0  0  0  0  0  0  0  0  0
   -2.8998    0.0648    0.3919 C   0  0  0  0  0  0  0  0  0  0  0  0
   -1.8389    1.1468    0.6060 C   0  0  0  0  0  0  0  0  0  0  0  0
   -0.4452    0.5858    0.9080 C   0  0  0  0  0  0  0  0  0  0  0  0
    0.1811   -0.1539   -0.2771 C   0  0  0  0  0  0  0  0  0  0  0  0
    1.5748   -0.7150    0.0249 C   0  0  0  0  0  0  0  0  0  0  0  0
    2.6358    0.3670    0.2387 C   0  0  0  0  0  0  0  0  0  0  0  0
    4.0270   -0.2487    0.4152 C   0  0  0  0  0  0  0  0  0  0  0  0
    5.0882    0.8331    0.6290 C   0  0  0  0  0  0  0  0  0  0  0  0
    6.4815    0.2705    0.9268 C   0  0  0  0  0  0  0  0  0  0  0  0
    7.0957   -0.4896   -0.2531 C   0  0  0  0  0  0  0  0  0  0  0  0
    8.5132   -0.9671    0.0474 C   0  0  0  0  0  0  0  0  0  0  0  0
    9.3858    0.1333    0.2615 O   0  0  0  0  0  0  0  0  0  0  0  0
   -9.4780    0.3184    0.3162 H   0  0  0  0  0  0  0  0  0  0  0  0
   -9.2149    0.4139   -1.4363 H   0  0  0  0  0  0  0  0  0  0  0  0
   -9.9297   -1.0428   -0.7244 H   0  0  0  0  0  0  0  0  0  0  0  0
   -7.5561   -1.4537   -1.2840 H   0  0  0  0  0  0  0  0  0  0  0  0
   -7.8177   -1.5487    0.4588 H   0  0  0  0  0  0  0  0  0  0  0  0
   -6.9966    0.8082    0.7105 H   0  0  0  0  0  0  0  0  0  0  0  0
   -6.7349    0.9032   -1.0323 H   0  0  0  0  0  0  0  0  0  0  0  0
   -5.3598   -1.0853    0.8532 H   0  0  0  0  0  0  0  0  0  0  0  0
   -5.0983   -0.9904   -0.8898 H   0  0  0  0  0  0  0  0  0  0  0  0
   -4.5453    1.2719    1.1037 H   0  0  0  0  0  0  0  0  0  0  0  0
   -4.2822    1.3666   -0.6393 H   0  0  0  0  0  0  0  0  0  0  0  0
   -2.6580   -0.5296   -0.4960 H   0  0  0  0  0  0  0  0  0  0  0  0
   -2.9069   -0.6183    1.2498 H   0  0  0  0  0  0  0  0  0  0  0  0
   -2.1409    1.7791    1.4504 H   0  0  0  0  0  0  0  0  0  0  0  0
   -1.7904    1.7989   -0.2746 H   0  0  0  0  0  0  0  0  0  0  0  0
   -0.4976   -0.0813    1.7768 H   0  0  0  0  0  0  0  0  0  0  0  0
    0.1945    1.4284    1.1933 H   0  0  0  0  0  0  0  0  0  0  0  0
    0.2336    0.5133   -1.1459 H   0  0  0  0  0  0  0  0  0  0  0  0
   -0.4586   -0.9964   -0.5624 H   0  0  0  0  0  0  0  0  0  0  0  0
    1.8765   -1.3475   -0.8193 H   0  0  0  0  0  0  0  0  0  0  0  0
    1.5264   -1.3669    0.9056 H   0  0  0  0  0  0  0  0  0  0  0  0
    2.6436    1.0498   -0.6194 H   0  0  0  0  0  0  0  0  0  0  0  0
    2.3934    0.9616    1.1263 H   0  0  0  0  0  0  0  0  0  0  0  0
    4.2702   -0.8431   -0.4725 H   0  0  0  0  0  0  0  0  0  0  0  0
    4.0193   -0.9316    1.2732 H   0  0  0  0  0  0  0  0  0  0  0  0
    5.1353    1.4855   -0.2514 H   0  0  0  0  0  0  0  0  0  0  0  0
    4.7886    1.4652    1.4742 H   0  0  0  0  0  0  0  0  0  0  0  0
    7.1332    1.1101    1.1973 H   0  0  0  0  0  0  0  0  0  0  0  0
    6.4329   -0.3859    1.8041 H   0  0  0  0  0  0  0  0  0  0  0  0
    6.4820   -1.3615   -0.5019 H   0  0  0  0  0  0  0  0  0  0  0  0
    7.1126    0.1689   -1.1297 H   0  0  0  0  0  0  0  0  0  0  0  0
    8.5316   -1.5978    0.9417 H   0  0  0  0  0  0  0  0  0  0  0  0
    8.9034   -1.5551   -0.7894 H   0  0  0  0  0  0  0  0  0  0  0  0
    9.3644    0.6842   -0.5395 H   0  0  0  0  0  0  0  0  0  0  0  0
  1  2  1  0
  2  3  1  0
  3  4  1  0
  4  5  1  0
  5  6  1  0
  6  7  1  0
  7  8  1  0
  8  9  1  0
  9 10  1  0
 10 11  1  0
 11 12  1  0
 12 13  1  0
 13 14  1  0
 14 15  1  0
 15 16  1  0
 16 17  1  0
  1 18  1  0
  1 19  1  0
  1 20  1  0
  2 21  1  0
  2 22  1  0
  3 23  1  0
  3 24  1  0
  4 25  1  0
  4 26  1  0
  5 27  1  0
  5 28  1  0
  6 29  1  0
  6 30  1  0
  7 31  1  0
  7 32  1  0
  8 33  1  0
  8 34  1  0
  9 35  1  0
  9 36  1  0
 10 37  1  0
 10 38  1  0
 11 39  1  0
 11 40  1  0
 12 41  1  0
 12 42  1  0
 13 43  1  0
 13 44  1  0
 14 45  1  0
 14 46  1  0
 15 47  1  0
 15 48  1  0
 16 49  1  0
 16 50  1  0
 17 51  1  0
M  END
>  <Energy>  (7) 
-1.243097398872525

>  <Real charge>  (7) 
0

>  <Mult>  (7) 
1

$$$$
mol_317 924
     RDKit          3D

 51 50  0  0  0  0  0  0  0  0999 V2000
    7.4056    1.8689    1.2016 C   0  0  0  0  0  0  0  0  0  0  0  0
    6.0644    1.3445    1.6890 C   0  0  0  0  0  0  0  0  0  0  0  0
    5.4485    0.3664    0.6888 C   0  0  0  0  0  0  0  0  0  0  0  0
    4.0994   -0.1586    1.1828 C   0  0  0  0  0  0  0  0  0  0  0  0
    3.4828   -1.1380    0.1815 C   0  0  0  0  0  0  0  0  0  0  0  0
    2.1316   -1.6580    0.6763 C   0  0  0  0  0  0  0  0  0  0  0  0
    1.5170   -2.7213   -0.2386 C   0  0  0  0  0  0  0  0  0  0  0  0
    1.2283   -2.2763   -1.6761 C   0  0  0  0  0  0  0  0  0  0  0  0
    0.3333   -1.0423   -1.8235 C   0  0  0  0  0  0  0  0  0  0  0  0
   -1.0589   -1.2251   -1.2157 C   0  0  0  0  0  0  0  0  0  0  0  0
   -1.9438   -0.0052   -1.4821 C   0  0  0  0  0  0  0  0  0  0  0  0
   -3.3359   -0.1834   -0.8715 C   0  0  0  0  0  0  0  0  0  0  0  0
   -4.2169    1.0395   -1.1360 C   0  0  0  0  0  0  0  0  0  0  0  0
   -5.6589    0.8696   -0.6480 C   0  0  0  0  0  0  0  0  0  0  0  0
   -5.7773    0.7678    0.8761 C   0  0  0  0  0  0  0  0  0  0  0  0
   -7.2300    0.6804    1.3341 C   0  0  0  0  0  0  0  0  0  0  0  0
   -7.9422    1.8619    0.9948 O   0  0  0  0  0  0  0  0  0  0  0  0
    7.2974    2.3981    0.2494 H   0  0  0  0  0  0  0  0  0  0  0  0
    7.8279    2.5663    1.9317 H   0  0  0  0  0  0  0  0  0  0  0  0
    8.1192    1.0507    1.0611 H   0  0  0  0  0  0  0  0  0  0  0  0
    5.3850    2.1896    1.8501 H   0  0  0  0  0  0  0  0  0  0  0  0
    6.2022    0.8496    2.6574 H   0  0  0  0  0  0  0  0  0  0  0  0
    5.3168    0.8651   -0.2791 H   0  0  0  0  0  0  0  0  0  0  0  0
    6.1337   -0.4749    0.5281 H   0  0  0  0  0  0  0  0  0  0  0  0
    4.2318   -0.6569    2.1508 H   0  0  0  0  0  0  0  0  0  0  0  0
    3.4140    0.6826    1.3428 H   0  0  0  0  0  0  0  0  0  0  0  0
    4.1660   -1.9813    0.0244 H   0  0  0  0  0  0  0  0  0  0  0  0
    3.3611   -0.6334   -0.7835 H   0  0  0  0  0  0  0  0  0  0  0  0
    2.2624   -2.1025    1.6711 H   0  0  0  0  0  0  0  0  0  0  0  0
    1.4347   -0.8218    0.8037 H   0  0  0  0  0  0  0  0  0  0  0  0
    0.5904   -3.0844    0.2218 H   0  0  0  0  0  0  0  0  0  0  0  0
    2.1906   -3.5869   -0.2765 H   0  0  0  0  0  0  0  0  0  0  0  0
    2.1757   -2.0840   -2.1935 H   0  0  0  0  0  0  0  0  0  0  0  0
    0.7627   -3.1159   -2.2079 H   0  0  0  0  0  0  0  0  0  0  0  0
    0.2300   -0.8254   -2.8942 H   0  0  0  0  0  0  0  0  0  0  0  0
    0.8216   -0.1673   -1.3794 H   0  0  0  0  0  0  0  0  0  0  0  0
   -0.9795   -1.3799   -0.1339 H   0  0  0  0  0  0  0  0  0  0  0  0
   -1.5302   -2.1201   -1.6392 H   0  0  0  0  0  0  0  0  0  0  0  0
   -1.4705    0.8905   -1.0617 H   0  0  0  0  0  0  0  0  0  0  0  0
   -2.0345    0.1535   -2.5635 H   0  0  0  0  0  0  0  0  0  0  0  0
   -3.2345   -0.3478    0.2069 H   0  0  0  0  0  0  0  0  0  0  0  0
   -3.8102   -1.0771   -1.2945 H   0  0  0  0  0  0  0  0  0  0  0  0
   -4.2435    1.2337   -2.2156 H   0  0  0  0  0  0  0  0  0  0  0  0
   -3.7719    1.9256   -0.6673 H   0  0  0  0  0  0  0  0  0  0  0  0
   -6.1019   -0.0194   -1.1132 H   0  0  0  0  0  0  0  0  0  0  0  0
   -6.2380    1.7316   -1.0009 H   0  0  0  0  0  0  0  0  0  0  0  0
   -5.2461   -0.1184    1.2383 H   0  0  0  0  0  0  0  0  0  0  0  0
   -5.3063    1.6486    1.3286 H   0  0  0  0  0  0  0  0  0  0  0  0
   -7.7361   -0.1705    0.8676 H   0  0  0  0  0  0  0  0  0  0  0  0
   -7.2808    0.5505    2.4199 H   0  0  0  0  0  0  0  0  0  0  0  0
   -7.4863    2.6099    1.4169 H   0  0  0  0  0  0  0  0  0  0  0  0
  1  2  1  0
  2  3  1  0
  3  4  1  0
  4  5  1  0
  5  6  1  0
  6  7  1  0
  7  8  1  0
  8  9  1  0
  9 10  1  0
 10 11  1  0
 11 12  1  0
 12 13  1  0
 13 14  1  0
 14 15  1  0
 15 16  1  0
 16 17  1  0
  1 18  1  0
  1 19  1  0
  1 20  1  0
  2 21  1  0
  2 22  1  0
  3 23  1  0
  3 24  1  0
  4 25  1  0
  4 26  1  0
  5 27  1  0
  5 28  1  0
  6 29  1  0
  6 30  1  0
  7 31  1  0
  7 32  1  0
  8 33  1  0
  8 34  1  0
  9 35  1  0
  9 36  1  0
 10 37  1  0
 10 38  1  0
 11 39  1  0
 11 40  1  0
 12 41  1  0
 12 42  1  0
 13 43  1  0
 13 44  1  0
 14 45  1  0
 14 46  1  0
 15 47  1  0
 15 48  1  0
 16 49  1  0
 16 50  1  0
 17 51  1  0
M  END
>  <Energy>  (8) 
-1.214640644508977

>  <Real charge>  (8) 
0

>  <Mult>  (8) 
1

$$$$
