mol_385 359
     RDKit          3D

 24 23  0  0  0  0  0  0  0  0999 V2000
   -3.9273    0.8843    0.6912 C   0  0  0  0  0  0  0  0  0  0  0  0
   -2.7298   -0.0476    0.7874 C   0  0  0  0  0  0  0  0  0  0  0  0
   -1.4994    0.5492    0.1046 C   0  0  0  0  0  0  0  0  0  0  0  0
   -0.2972   -0.3912    0.2036 C   0  0  0  0  0  0  0  0  0  0  0  0
    0.9347    0.2060   -0.4797 C   0  0  0  0  0  0  0  0  0  0  0  0
    2.1361   -0.7362   -0.3801 C   0  0  0  0  0  0  0  0  0  0  0  0
    3.3420   -0.1562   -1.0619 C   0  0  0  0  0  0  0  0  0  0  0  0
    4.4885    0.1386   -0.4365 C   0  0  0  0  0  0  0  0  0  0  0  0
   -4.7956    0.4379    1.1857 H   0  0  0  0  0  0  0  0  0  0  0  0
   -4.1925    1.0757   -0.3535 H   0  0  0  0  0  0  0  0  0  0  0  0
   -3.7173    1.8440    1.1741 H   0  0  0  0  0  0  0  0  0  0  0  0
   -2.5112   -0.2442    1.8435 H   0  0  0  0  0  0  0  0  0  0  0  0
   -2.9837   -1.0082    0.3242 H   0  0  0  0  0  0  0  0  0  0  0  0
   -1.7248    0.7478   -0.9503 H   0  0  0  0  0  0  0  0  0  0  0  0
   -1.2523    1.5118    0.5688 H   0  0  0  0  0  0  0  0  0  0  0  0
   -0.0721   -0.5895    1.2586 H   0  0  0  0  0  0  0  0  0  0  0  0
   -0.5443   -1.3536   -0.2609 H   0  0  0  0  0  0  0  0  0  0  0  0
    1.1801    1.1695   -0.0152 H   0  0  0  0  0  0  0  0  0  0  0  0
    0.7063    0.4074   -1.5341 H   0  0  0  0  0  0  0  0  0  0  0  0
    2.3523   -0.9484    0.6741 H   0  0  0  0  0  0  0  0  0  0  0  0
    1.8970   -1.6951   -0.8553 H   0  0  0  0  0  0  0  0  0  0  0  0
    3.2651    0.0199   -2.1330 H   0  0  0  0  0  0  0  0  0  0  0  0
    5.3294    0.5523   -0.9847 H   0  0  0  0  0  0  0  0  0  0  0  0
    4.6159   -0.0230    0.6294 H   0  0  0  0  0  0  0  0  0  0  0  0
  1  2  1  0
  2  3  1  0
  3  4  1  0
  4  5  1  0
  5  6  1  0
  6  7  1  0
  7  8  2  3
  1  9  1  0
  1 10  1  0
  1 11  1  0
  2 12  1  0
  2 13  1  0
  3 14  1  0
  3 15  1  0
  4 16  1  0
  4 17  1  0
  5 18  1  0
  5 19  1  0
  6 20  1  0
  6 21  1  0
  7 22  1  0
  8 23  1  0
  8 24  1  0
M  END
>  <Energy>  (1) 
4.626554032009755

>  <Real charge>  (1) 
0

>  <Mult>  (1) 
1

$$$$
mol_385 271
     RDKit          3D

 24 23  0  0  0  0  0  0  0  0999 V2000
    3.7581    0.4234   -0.7689 C   0  0  0  0  0  0  0  0  0  0  0  0
    2.3943    0.7324   -0.1721 C   0  0  0  0  0  0  0  0  0  0  0  0
    1.3966   -0.3935   -0.4424 C   0  0  0  0  0  0  0  0  0  0  0  0
    0.0256   -0.0787    0.1600 C   0  0  0  0  0  0  0  0  0  0  0  0
   -0.9724   -1.2084   -0.1127 C   0  0  0  0  0  0  0  0  0  0  0  0
   -2.3396   -0.9710    0.5364 C   0  0  0  0  0  0  0  0  0  0  0  0
   -3.0799    0.1917   -0.0607 C   0  0  0  0  0  0  0  0  0  0  0  0
   -3.4698    1.2690    0.6322 C   0  0  0  0  0  0  0  0  0  0  0  0
    3.6920    0.2973   -1.8543 H   0  0  0  0  0  0  0  0  0  0  0  0
    4.4557    1.2415   -0.5638 H   0  0  0  0  0  0  0  0  0  0  0  0
    4.1749   -0.4938   -0.3409 H   0  0  0  0  0  0  0  0  0  0  0  0
    2.0205    1.6714   -0.5968 H   0  0  0  0  0  0  0  0  0  0  0  0
    2.5007    0.8845    0.9083 H   0  0  0  0  0  0  0  0  0  0  0  0
    1.7777   -1.3310   -0.0195 H   0  0  0  0  0  0  0  0  0  0  0  0
    1.2965   -0.5441   -1.5243 H   0  0  0  0  0  0  0  0  0  0  0  0
    0.1259    0.0686    1.2422 H   0  0  0  0  0  0  0  0  0  0  0  0
   -0.3463    0.8619   -0.2625 H   0  0  0  0  0  0  0  0  0  0  0  0
   -0.5648   -2.1489    0.2786 H   0  0  0  0  0  0  0  0  0  0  0  0
   -1.0921   -1.3427   -1.1951 H   0  0  0  0  0  0  0  0  0  0  0  0
   -2.2148   -0.8426    1.6186 H   0  0  0  0  0  0  0  0  0  0  0  0
   -2.9543   -1.8687    0.3975 H   0  0  0  0  0  0  0  0  0  0  0  0
   -3.3147    0.1332   -1.1216 H   0  0  0  0  0  0  0  0  0  0  0  0
   -4.0072    2.0773    0.1459 H   0  0  0  0  0  0  0  0  0  0  0  0
   -3.2628    1.3714    1.6929 H   0  0  0  0  0  0  0  0  0  0  0  0
  1  2  1  0
  2  3  1  0
  3  4  1  0
  4  5  1  0
  5  6  1  0
  6  7  1  0
  7  8  2  3
  1  9  1  0
  1 10  1  0
  1 11  1  0
  2 12  1  0
  2 13  1  0
  3 14  1  0
  3 15  1  0
  4 16  1  0
  4 17  1  0
  5 18  1  0
  5 19  1  0
  6 20  1  0
  6 21  1  0
  7 22  1  0
  8 23  1  0
  8 24  1  0
M  END
>  <Energy>  (2) 
4.835918161035707

>  <Real charge>  (2) 
0

>  <Mult>  (2) 
1

$$$$
mol_385 167
     RDKit          3D

 24 23  0  0  0  0  0  0  0  0999 V2000
    3.9245    0.6781   -0.1382 C   0  0  0  0  0  0  0  0  0  0  0  0
    2.7836   -0.3237   -0.0598 C   0  0  0  0  0  0  0  0  0  0  0  0
    1.4241    0.3748   -0.0581 C   0  0  0  0  0  0  0  0  0  0  0  0
    0.2791   -0.6365    0.0208 C   0  0  0  0  0  0  0  0  0  0  0  0
   -1.0826    0.0631    0.0225 C   0  0  0  0  0  0  0  0  0  0  0  0
   -2.2276   -0.9524    0.1017 C   0  0  0  0  0  0  0  0  0  0  0  0
   -3.6248   -0.3913    0.1110 C   0  0  0  0  0  0  0  0  0  0  0  0
   -3.9876    0.8969    0.0581 C   0  0  0  0  0  0  0  0  0  0  0  0
    3.8609    1.2742   -1.0541 H   0  0  0  0  0  0  0  0  0  0  0  0
    4.8871    0.1571   -0.1381 H   0  0  0  0  0  0  0  0  0  0  0  0
    3.9073    1.3601    0.7179 H   0  0  0  0  0  0  0  0  0  0  0  0
    2.8948   -0.9247    0.8502 H   0  0  0  0  0  0  0  0  0  0  0  0
    2.8487   -1.0101   -0.9121 H   0  0  0  0  0  0  0  0  0  0  0  0
    1.3658    1.0632    0.7938 H   0  0  0  0  0  0  0  0  0  0  0  0
    1.3197    0.9778   -0.9684 H   0  0  0  0  0  0  0  0  0  0  0  0
    0.3376   -1.3245   -0.8313 H   0  0  0  0  0  0  0  0  0  0  0  0
    0.3836   -1.2391    0.9312 H   0  0  0  0  0  0  0  0  0  0  0  0
   -1.1808    0.6648   -0.8896 H   0  0  0  0  0  0  0  0  0  0  0  0
   -1.1347    0.7503    0.8761 H   0  0  0  0  0  0  0  0  0  0  0  0
   -2.1057   -1.5571    1.0091 H   0  0  0  0  0  0  0  0  0  0  0  0
   -2.1517   -1.6423   -0.7481 H   0  0  0  0  0  0  0  0  0  0  0  0
   -4.4164   -1.1381    0.1679 H   0  0  0  0  0  0  0  0  0  0  0  0
   -5.0378    1.1738    0.0721 H   0  0  0  0  0  0  0  0  0  0  0  0
   -3.2671    1.7055    0.0001 H   0  0  0  0  0  0  0  0  0  0  0  0
  1  2  1  0
  2  3  1  0
  3  4  1  0
  4  5  1  0
  5  6  1  0
  6  7  1  0
  7  8  2  3
  1  9  1  0
  1 10  1  0
  1 11  1  0
  2 12  1  0
  2 13  1  0
  3 14  1  0
  3 15  1  0
  4 16  1  0
  4 17  1  0
  5 18  1  0
  5 19  1  0
  6 20  1  0
  6 21  1  0
  7 22  1  0
  8 23  1  0
  8 24  1  0
M  END
>  <Energy>  (3) 
4.9456901186597975

>  <Real charge>  (3) 
0

>  <Mult>  (3) 
1

$$$$
mol_385 218
     RDKit          3D

 24 23  0  0  0  0  0  0  0  0999 V2000
   -3.8841    0.0683    0.6719 C   0  0  0  0  0  0  0  0  0  0  0  0
   -2.6324   -0.0944   -0.1755 C   0  0  0  0  0  0  0  0  0  0  0  0
   -1.3747   -0.1630    0.6906 C   0  0  0  0  0  0  0  0  0  0  0  0
   -0.1171   -0.3271   -0.1660 C   0  0  0  0  0  0  0  0  0  0  0  0
    1.1414   -0.3941    0.7047 C   0  0  0  0  0  0  0  0  0  0  0  0
    2.4229   -0.6513   -0.0949 C   0  0  0  0  0  0  0  0  0  0  0  0
    2.7984    0.4857   -1.0025 C   0  0  0  0  0  0  0  0  0  0  0  0
    3.8873    1.2474   -0.8384 C   0  0  0  0  0  0  0  0  0  0  0  0
   -4.7712    0.1151    0.0325 H   0  0  0  0  0  0  0  0  0  0  0  0
   -4.0049   -0.7751    1.3592 H   0  0  0  0  0  0  0  0  0  0  0  0
   -3.8415    0.9894    1.2618 H   0  0  0  0  0  0  0  0  0  0  0  0
   -2.5587    0.7478   -0.8734 H   0  0  0  0  0  0  0  0  0  0  0  0
   -2.7210   -1.0070   -0.7764 H   0  0  0  0  0  0  0  0  0  0  0  0
   -1.2925    0.7505    1.2922 H   0  0  0  0  0  0  0  0  0  0  0  0
   -1.4561   -1.0042    1.3896 H   0  0  0  0  0  0  0  0  0  0  0  0
   -0.0473    0.5135   -0.8656 H   0  0  0  0  0  0  0  0  0  0  0  0
   -0.1984   -1.2426   -0.7645 H   0  0  0  0  0  0  0  0  0  0  0  0
    1.2426    0.5348    1.2800 H   0  0  0  0  0  0  0  0  0  0  0  0
    1.0258   -1.2057    1.4341 H   0  0  0  0  0  0  0  0  0  0  0  0
    2.3097   -1.5603   -0.6977 H   0  0  0  0  0  0  0  0  0  0  0  0
    3.2374   -0.8500    0.6130 H   0  0  0  0  0  0  0  0  0  0  0  0
    2.1469    0.6799   -1.8519 H   0  0  0  0  0  0  0  0  0  0  0  0
    4.1126    2.0508   -1.5331 H   0  0  0  0  0  0  0  0  0  0  0  0
    4.5750    1.0913   -0.0131 H   0  0  0  0  0  0  0  0  0  0  0  0
  1  2  1  0
  2  3  1  0
  3  4  1  0
  4  5  1  0
  5  6  1  0
  6  7  1  0
  7  8  2  3
  1  9  1  0
  1 10  1  0
  1 11  1  0
  2 12  1  0
  2 13  1  0
  3 14  1  0
  3 15  1  0
  4 16  1  0
  4 17  1  0
  5 18  1  0
  5 19  1  0
  6 20  1  0
  6 21  1  0
  7 22  1  0
  8 23  1  0
  8 24  1  0
M  END
>  <Energy>  (4) 
5.174341637875364

>  <Real charge>  (4) 
0

>  <Mult>  (4) 
1

$$$$
mol_385 13
     RDKit          3D

 24 23  0  0  0  0  0  0  0  0999 V2000
   -2.8387    1.3967    1.1903 C   0  0  0  0  0  0  0  0  0  0  0  0
   -2.2810    0.4018    0.1849 C   0  0  0  0  0  0  0  0  0  0  0  0
   -0.8905   -0.0870    0.5926 C   0  0  0  0  0  0  0  0  0  0  0  0
   -0.3338   -1.0842   -0.4258 C   0  0  0  0  0  0  0  0  0  0  0  0
    1.0123   -1.6907   -0.0116 C   0  0  0  0  0  0  0  0  0  0  0  0
    2.1663   -0.6932    0.1351 C   0  0  0  0  0  0  0  0  0  0  0  0
    2.4981    0.0164   -1.1464 C   0  0  0  0  0  0  0  0  0  0  0  0
    2.4443    1.3448   -1.3046 C   0  0  0  0  0  0  0  0  0  0  0  0
   -2.9277    0.9434    2.1828 H   0  0  0  0  0  0  0  0  0  0  0  0
   -3.8330    1.7324    0.8797 H   0  0  0  0  0  0  0  0  0  0  0  0
   -2.1928    2.2769    1.2709 H   0  0  0  0  0  0  0  0  0  0  0  0
   -2.2341    0.8761   -0.8023 H   0  0  0  0  0  0  0  0  0  0  0  0
   -2.9668   -0.4496    0.1040 H   0  0  0  0  0  0  0  0  0  0  0  0
   -0.9428   -0.5606    1.5804 H   0  0  0  0  0  0  0  0  0  0  0  0
   -0.2206    0.7755    0.6807 H   0  0  0  0  0  0  0  0  0  0  0  0
   -0.2450   -0.6030   -1.4068 H   0  0  0  0  0  0  0  0  0  0  0  0
   -1.0507   -1.9059   -0.5488 H   0  0  0  0  0  0  0  0  0  0  0  0
    0.8860   -2.2196    0.9414 H   0  0  0  0  0  0  0  0  0  0  0  0
    1.2892   -2.4530   -0.7513 H   0  0  0  0  0  0  0  0  0  0  0  0
    3.0603   -1.2423    0.4557 H   0  0  0  0  0  0  0  0  0  0  0  0
    1.9472    0.0219    0.9362 H   0  0  0  0  0  0  0  0  0  0  0  0
    2.8093   -0.6028   -1.9854 H   0  0  0  0  0  0  0  0  0  0  0  0
    2.7009    1.8016   -2.2555 H   0  0  0  0  0  0  0  0  0  0  0  0
    2.1436    2.0043   -0.4964 H   0  0  0  0  0  0  0  0  0  0  0  0
  1  2  1  0
  2  3  1  0
  3  4  1  0
  4  5  1  0
  5  6  1  0
  6  7  1  0
  7  8  2  3
  1  9  1  0
  1 10  1  0
  1 11  1  0
  2 12  1  0
  2 13  1  0
  3 14  1  0
  3 15  1  0
  4 16  1  0
  4 17  1  0
  5 18  1  0
  5 19  1  0
  6 20  1  0
  6 21  1  0
  7 22  1  0
  8 23  1  0
  8 24  1  0
M  END
>  <Energy>  (5) 
5.423620716674658

>  <Real charge>  (5) 
0

>  <Mult>  (5) 
1

$$$$
mol_385 235
     RDKit          3D

 24 23  0  0  0  0  0  0  0  0999 V2000
   -3.4465    0.6113    0.4889 C   0  0  0  0  0  0  0  0  0  0  0  0
   -2.9164   -0.7268   -0.0026 C   0  0  0  0  0  0  0  0  0  0  0  0
   -1.4793   -1.0138    0.4374 C   0  0  0  0  0  0  0  0  0  0  0  0
   -0.4550   -0.0550   -0.1738 C   0  0  0  0  0  0  0  0  0  0  0  0
    0.9729   -0.4499    0.2121 C   0  0  0  0  0  0  0  0  0  0  0  0
    1.9978    0.5097   -0.3961 C   0  0  0  0  0  0  0  0  0  0  0  0
    3.3995    0.1151   -0.0288 C   0  0  0  0  0  0  0  0  0  0  0  0
    4.2342    0.8844    0.6812 C   0  0  0  0  0  0  0  0  0  0  0  0
   -4.5044    0.7149    0.2268 H   0  0  0  0  0  0  0  0  0  0  0  0
   -3.3575    0.6940    1.5767 H   0  0  0  0  0  0  0  0  0  0  0  0
   -2.9096    1.4479    0.0324 H   0  0  0  0  0  0  0  0  0  0  0  0
   -3.5637   -1.5216    0.3871 H   0  0  0  0  0  0  0  0  0  0  0  0
   -2.9876   -0.7682   -1.0957 H   0  0  0  0  0  0  0  0  0  0  0  0
   -1.4153   -0.9756    1.5317 H   0  0  0  0  0  0  0  0  0  0  0  0
   -1.2299   -2.0406    0.1423 H   0  0  0  0  0  0  0  0  0  0  0  0
   -0.6483    0.9681    0.1675 H   0  0  0  0  0  0  0  0  0  0  0  0
   -0.5539   -0.0587   -1.2660 H   0  0  0  0  0  0  0  0  0  0  0  0
    1.1744   -1.4734   -0.1287 H   0  0  0  0  0  0  0  0  0  0  0  0
    1.0694   -0.4510    1.3053 H   0  0  0  0  0  0  0  0  0  0  0  0
    1.9108    0.5026   -1.4892 H   0  0  0  0  0  0  0  0  0  0  0  0
    1.7853    1.5341   -0.0666 H   0  0  0  0  0  0  0  0  0  0  0  0
    3.7454   -0.8559   -0.3779 H   0  0  0  0  0  0  0  0  0  0  0  0
    3.9377    1.8621    1.0479 H   0  0  0  0  0  0  0  0  0  0  0  0
    5.2398    0.5463    0.9120 H   0  0  0  0  0  0  0  0  0  0  0  0
  1  2  1  0
  2  3  1  0
  3  4  1  0
  4  5  1  0
  5  6  1  0
  6  7  1  0
  7  8  2  3
  1  9  1  0
  1 10  1  0
  1 11  1  0
  2 12  1  0
  2 13  1  0
  3 14  1  0
  3 15  1  0
  4 16  1  0
  4 17  1  0
  5 18  1  0
  5 19  1  0
  6 20  1  0
  6 21  1  0
  7 22  1  0
  8 23  1  0
  8 24  1  0
M  END
>  <Energy>  (6) 
5.450286525601227

>  <Real charge>  (6) 
0

>  <Mult>  (6) 
1

$$$$
mol_385 224
     RDKit          3D

 24 23  0  0  0  0  0  0  0  0999 V2000
   -3.7381    0.5871   -0.6459 C   0  0  0  0  0  0  0  0  0  0  0  0
   -2.7031   -0.4357   -0.2050 C   0  0  0  0  0  0  0  0  0  0  0  0
   -1.2965    0.1641   -0.1830 C   0  0  0  0  0  0  0  0  0  0  0  0
   -0.2599   -0.8717    0.2579 C   0  0  0  0  0  0  0  0  0  0  0  0
    1.1515   -0.2954    0.4072 C   0  0  0  0  0  0  0  0  0  0  0  0
    1.7590    0.1734   -0.9171 C   0  0  0  0  0  0  0  0  0  0  0  0
    3.1775    0.6323   -0.7304 C   0  0  0  0  0  0  0  0  0  0  0  0
    4.2345    0.0645   -1.3245 C   0  0  0  0  0  0  0  0  0  0  0  0
   -4.7359    0.1374   -0.6538 H   0  0  0  0  0  0  0  0  0  0  0  0
   -3.5227    0.9536   -1.6546 H   0  0  0  0  0  0  0  0  0  0  0  0
   -3.7572    1.4443    0.0348 H   0  0  0  0  0  0  0  0  0  0  0  0
   -2.7314   -1.2933   -0.8874 H   0  0  0  0  0  0  0  0  0  0  0  0
   -2.9665   -0.8057    0.7927 H   0  0  0  0  0  0  0  0  0  0  0  0
   -1.0518    0.5387   -1.1831 H   0  0  0  0  0  0  0  0  0  0  0  0
   -1.2739    1.0214    0.5005 H   0  0  0  0  0  0  0  0  0  0  0  0
   -0.2431   -1.7057   -0.4543 H   0  0  0  0  0  0  0  0  0  0  0  0
   -0.5616   -1.2902    1.2262 H   0  0  0  0  0  0  0  0  0  0  0  0
    1.1334    0.5340    1.1257 H   0  0  0  0  0  0  0  0  0  0  0  0
    1.7920   -1.0729    0.8436 H   0  0  0  0  0  0  0  0  0  0  0  0
    1.7088   -0.6372   -1.6541 H   0  0  0  0  0  0  0  0  0  0  0  0
    1.1844    1.0128   -1.3238 H   0  0  0  0  0  0  0  0  0  0  0  0
    3.3364    1.4868   -0.0755 H   0  0  0  0  0  0  0  0  0  0  0  0
    4.1271   -0.7868   -1.9895 H   0  0  0  0  0  0  0  0  0  0  0  0
    5.2373    0.4442   -1.1543 H   0  0  0  0  0  0  0  0  0  0  0  0
  1  2  1  0
  2  3  1  0
  3  4  1  0
  4  5  1  0
  5  6  1  0
  6  7  1  0
  7  8  2  3
  1  9  1  0
  1 10  1  0
  1 11  1  0
  2 12  1  0
  2 13  1  0
  3 14  1  0
  3 15  1  0
  4 16  1  0
  4 17  1  0
  5 18  1  0
  5 19  1  0
  6 20  1  0
  6 21  1  0
  7 22  1  0
  8 23  1  0
  8 24  1  0
M  END
>  <Energy>  (7) 
5.480877491084455

>  <Real charge>  (7) 
0

>  <Mult>  (7) 
1

$$$$
mol_385 317
     RDKit          3D

 24 23  0  0  0  0  0  0  0  0999 V2000
   -3.7269    0.4887    0.0647 C   0  0  0  0  0  0  0  0  0  0  0  0
   -2.2607    0.3702   -0.3229 C   0  0  0  0  0  0  0  0  0  0  0  0
   -1.6480   -0.9274    0.2053 C   0  0  0  0  0  0  0  0  0  0  0  0
   -0.2043   -1.1504   -0.2542 C   0  0  0  0  0  0  0  0  0  0  0  0
    0.7802   -0.1238    0.3116 C   0  0  0  0  0  0  0  0  0  0  0  0
    2.2196   -0.4618   -0.0855 C   0  0  0  0  0  0  0  0  0  0  0  0
    3.1894    0.5382    0.4755 C   0  0  0  0  0  0  0  0  0  0  0  0
    3.9749    1.3232   -0.2724 C   0  0  0  0  0  0  0  0  0  0  0  0
   -3.8463    0.4836    1.1529 H   0  0  0  0  0  0  0  0  0  0  0  0
   -4.3109   -0.3393   -0.3495 H   0  0  0  0  0  0  0  0  0  0  0  0
   -4.1457    1.4244   -0.3188 H   0  0  0  0  0  0  0  0  0  0  0  0
   -2.1739    0.4063   -1.4150 H   0  0  0  0  0  0  0  0  0  0  0  0
   -1.7227    1.2363    0.0766 H   0  0  0  0  0  0  0  0  0  0  0  0
   -2.2514   -1.7753   -0.1424 H   0  0  0  0  0  0  0  0  0  0  0  0
   -1.6912   -0.9387    1.3012 H   0  0  0  0  0  0  0  0  0  0  0  0
   -0.1615   -1.1401   -1.3501 H   0  0  0  0  0  0  0  0  0  0  0  0
    0.1037   -2.1542    0.0642 H   0  0  0  0  0  0  0  0  0  0  0  0
    0.5303    0.8780   -0.0570 H   0  0  0  0  0  0  0  0  0  0  0  0
    0.6931   -0.0969    1.4051 H   0  0  0  0  0  0  0  0  0  0  0  0
    2.4873   -1.4547    0.2951 H   0  0  0  0  0  0  0  0  0  0  0  0
    2.2994   -0.5075   -1.1785 H   0  0  0  0  0  0  0  0  0  0  0  0
    3.2517    0.6093    1.5597 H   0  0  0  0  0  0  0  0  0  0  0  0
    4.6612    2.0252    0.1914 H   0  0  0  0  0  0  0  0  0  0  0  0
    3.9528    1.2865   -1.3571 H   0  0  0  0  0  0  0  0  0  0  0  0
  1  2  1  0
  2  3  1  0
  3  4  1  0
  4  5  1  0
  5  6  1  0
  6  7  1  0
  7  8  2  3
  1  9  1  0
  1 10  1  0
  1 11  1  0
  2 12  1  0
  2 13  1  0
  3 14  1  0
  3 15  1  0
  4 16  1  0
  4 17  1  0
  5 18  1  0
  5 19  1  0
  6 20  1  0
  6 21  1  0
  7 22  1  0
  8 23  1  0
  8 24  1  0
M  END
>  <Energy>  (8) 
5.501180092926011

>  <Real charge>  (8) 
0

>  <Mult>  (8) 
1

$$$$
mol_385 244
     RDKit          3D

 24 23  0  0  0  0  0  0  0  0999 V2000
   -3.7784    0.3775    0.1136 C   0  0  0  0  0  0  0  0  0  0  0  0
   -2.3703    0.1279   -0.4053 C   0  0  0  0  0  0  0  0  0  0  0  0
   -1.5659   -0.7410    0.5623 C   0  0  0  0  0  0  0  0  0  0  0  0
   -0.1788   -1.1175    0.0337 C   0  0  0  0  0  0  0  0  0  0  0  0
    0.7619    0.0809   -0.1153 C   0  0  0  0  0  0  0  0  0  0  0  0
    2.1643   -0.3666   -0.5357 C   0  0  0  0  0  0  0  0  0  0  0  0
    3.0859    0.8079   -0.6991 C   0  0  0  0  0  0  0  0  0  0  0  0
    4.1935    0.9998    0.0281 C   0  0  0  0  0  0  0  0  0  0  0  0
   -4.3361    1.0033   -0.5901 H   0  0  0  0  0  0  0  0  0  0  0  0
   -3.7547    0.8908    1.0802 H   0  0  0  0  0  0  0  0  0  0  0  0
   -4.3240   -0.5635    0.2369 H   0  0  0  0  0  0  0  0  0  0  0  0
   -2.4299   -0.3610   -1.3845 H   0  0  0  0  0  0  0  0  0  0  0  0
   -1.8757    1.0939   -0.5517 H   0  0  0  0  0  0  0  0  0  0  0  0
   -1.4654   -0.2273    1.5261 H   0  0  0  0  0  0  0  0  0  0  0  0
   -2.1203   -1.6679    0.7558 H   0  0  0  0  0  0  0  0  0  0  0  0
   -0.2795   -1.6316   -0.9299 H   0  0  0  0  0  0  0  0  0  0  0  0
    0.2673   -1.8379    0.7306 H   0  0  0  0  0  0  0  0  0  0  0  0
    0.8169    0.6246    0.8362 H   0  0  0  0  0  0  0  0  0  0  0  0
    0.3649    0.7777   -0.8628 H   0  0  0  0  0  0  0  0  0  0  0  0
    2.5642   -1.0715    0.2034 H   0  0  0  0  0  0  0  0  0  0  0  0
    2.1124   -0.9024   -1.4911 H   0  0  0  0  0  0  0  0  0  0  0  0
    2.8273    1.5336   -1.4678 H   0  0  0  0  0  0  0  0  0  0  0  0
    4.4962    0.3026    0.8031 H   0  0  0  0  0  0  0  0  0  0  0  0
    4.8242    1.8676   -0.1396 H   0  0  0  0  0  0  0  0  0  0  0  0
  1  2  1  0
  2  3  1  0
  3  4  1  0
  4  5  1  0
  5  6  1  0
  6  7  1  0
  7  8  2  3
  1  9  1  0
  1 10  1  0
  1 11  1  0
  2 12  1  0
  2 13  1  0
  3 14  1  0
  3 15  1  0
  4 16  1  0
  4 17  1  0
  5 18  1  0
  5 19  1  0
  6 20  1  0
  6 21  1  0
  7 22  1  0
  8 23  1  0
  8 24  1  0
M  END
>  <Energy>  (9) 
5.508781848355584

>  <Real charge>  (9) 
0

>  <Mult>  (9) 
1

$$$$
mol_385 25
     RDKit          3D

 24 23  0  0  0  0  0  0  0  0999 V2000
    3.5642   -0.0337   -1.1082 C   0  0  0  0  0  0  0  0  0  0  0  0
    2.6954   -0.2026    0.1281 C   0  0  0  0  0  0  0  0  0  0  0  0
    1.2099   -0.2480   -0.2328 C   0  0  0  0  0  0  0  0  0  0  0  0
    0.3418   -0.4144    1.0164 C   0  0  0  0  0  0  0  0  0  0  0  0
   -1.1487   -0.5826    0.7051 C   0  0  0  0  0  0  0  0  0  0  0  0
   -1.7854    0.6659    0.0896 C   0  0  0  0  0  0  0  0  0  0  0  0
   -3.2685    0.4920   -0.0782 C   0  0  0  0  0  0  0  0  0  0  0  0
   -3.8983    0.5121   -1.2595 C   0  0  0  0  0  0  0  0  0  0  0  0
    4.6216   -0.0044   -0.8273 H   0  0  0  0  0  0  0  0  0  0  0  0
    3.4207   -0.8656   -1.8051 H   0  0  0  0  0  0  0  0  0  0  0  0
    3.3257    0.8980   -1.6311 H   0  0  0  0  0  0  0  0  0  0  0  0
    2.9821   -1.1259    0.6447 H   0  0  0  0  0  0  0  0  0  0  0  0
    2.8857    0.6280    0.8178 H   0  0  0  0  0  0  0  0  0  0  0  0
    0.9413    0.6755   -0.7575 H   0  0  0  0  0  0  0  0  0  0  0  0
    1.0253   -1.0802   -0.9228 H   0  0  0  0  0  0  0  0  0  0  0  0
    0.6766   -1.3014    1.5686 H   0  0  0  0  0  0  0  0  0  0  0  0
    0.4835    0.4444    1.6837 H   0  0  0  0  0  0  0  0  0  0  0  0
   -1.6652   -0.8288    1.6420 H   0  0  0  0  0  0  0  0  0  0  0  0
   -1.2886   -1.4415    0.0365 H   0  0  0  0  0  0  0  0  0  0  0  0
   -1.3204    0.8908   -0.8767 H   0  0  0  0  0  0  0  0  0  0  0  0
   -1.6099    1.5318    0.7390 H   0  0  0  0  0  0  0  0  0  0  0  0
   -3.8536    0.3519    0.8287 H   0  0  0  0  0  0  0  0  0  0  0  0
   -4.9751    0.3856   -1.3168 H   0  0  0  0  0  0  0  0  0  0  0  0
   -3.3602    0.6531   -2.1917 H   0  0  0  0  0  0  0  0  0  0  0  0
  1  2  1  0
  2  3  1  0
  3  4  1  0
  4  5  1  0
  5  6  1  0
  6  7  1  0
  7  8  2  3
  1  9  1  0
  1 10  1  0
  1 11  1  0
  2 12  1  0
  2 13  1  0
  3 14  1  0
  3 15  1  0
  4 16  1  0
  4 17  1  0
  5 18  1  0
  5 19  1  0
  6 20  1  0
  6 21  1  0
  7 22  1  0
  8 23  1  0
  8 24  1  0
M  END
>  <Energy>  (10) 
5.5141603970783475

>  <Real charge>  (10) 
0

>  <Mult>  (10) 
1

$$$$
