mol_807 196
     RDKit          3D

 23 22  0  0  0  0  0  0  0  0999 V2000
    2.2661   -0.6292    0.9503 C   0  0  0  0  0  0  0  0  0  0  0  0
    1.4557    0.6181    0.6282 C   0  0  0  0  0  0  0  0  0  0  0  0
    0.4012    0.4157   -0.4831 C   0  0  0  0  0  0  0  0  0  0  0  0
   -0.2585    1.7685   -0.7866 C   0  0  0  0  0  0  0  0  0  0  0  0
   -0.6251   -0.7139   -0.1811 C   0  0  0  0  0  0  0  0  0  0  0  0
   -1.4552   -0.4775    1.0835 C   0  0  0  0  0  0  0  0  0  0  0  0
   -1.5614   -0.9695   -1.3683 C   0  0  0  0  0  0  0  0  0  0  0  0
    2.7104   -1.0548    0.0451 H   0  0  0  0  0  0  0  0  0  0  0  0
    3.0785   -0.3794    1.6406 H   0  0  0  0  0  0  0  0  0  0  0  0
    1.6521   -1.3955    1.4319 H   0  0  0  0  0  0  0  0  0  0  0  0
    0.9841    0.9904    1.5449 H   0  0  0  0  0  0  0  0  0  0  0  0
    2.1573    1.3991    0.3077 H   0  0  0  0  0  0  0  0  0  0  0  0
    0.9468    0.1202   -1.3904 H   0  0  0  0  0  0  0  0  0  0  0  0
   -0.8150    2.1504    0.0748 H   0  0  0  0  0  0  0  0  0  0  0  0
    0.5004    2.5154   -1.0458 H   0  0  0  0  0  0  0  0  0  0  0  0
   -0.9423    1.7023   -1.6375 H   0  0  0  0  0  0  0  0  0  0  0  0
   -0.0643   -1.6454   -0.0342 H   0  0  0  0  0  0  0  0  0  0  0  0
   -2.0752    0.4205    1.0008 H   0  0  0  0  0  0  0  0  0  0  0  0
   -2.1264   -1.3248    1.2636 H   0  0  0  0  0  0  0  0  0  0  0  0
   -0.8201   -0.3767    1.9681 H   0  0  0  0  0  0  0  0  0  0  0  0
   -0.9917   -1.1137   -2.2921 H   0  0  0  0  0  0  0  0  0  0  0  0
   -2.2642   -0.1444   -1.5207 H   0  0  0  0  0  0  0  0  0  0  0  0
   -2.1532   -1.8761   -1.1995 H   0  0  0  0  0  0  0  0  0  0  0  0
  1  2  1  0
  2  3  1  0
  3  4  1  0
  3  5  1  0
  5  6  1  0
  5  7  1  0
  1  8  1  0
  1  9  1  0
  1 10  1  0
  2 11  1  0
  2 12  1  0
  3 13  1  0
  4 14  1  0
  4 15  1  0
  4 16  1  0
  5 17  1  0
  6 18  1  0
  6 19  1  0
  6 20  1  0
  7 21  1  0
  7 22  1  0
  7 23  1  0
M  END
>  <Energy>  (1) 
7.341368498390631

>  <Real charge>  (1) 
0

>  <Mult>  (1) 
1

$$$$
mol_807 357
     RDKit          3D

 23 22  0  0  0  0  0  0  0  0999 V2000
    2.3206   -1.1681    0.3506 C   0  0  0  0  0  0  0  0  0  0  0  0
    0.8387   -0.8199    0.4244 C   0  0  0  0  0  0  0  0  0  0  0  0
    0.3845    0.1696   -0.6700 C   0  0  0  0  0  0  0  0  0  0  0  0
    1.1033    1.5195   -0.5330 C   0  0  0  0  0  0  0  0  0  0  0  0
   -1.1584    0.3731   -0.7191 C   0  0  0  0  0  0  0  0  0  0  0  0
   -1.8907   -0.9022   -1.1511 C   0  0  0  0  0  0  0  0  0  0  0  0
   -1.7595    0.8936    0.5894 C   0  0  0  0  0  0  0  0  0  0  0  0
    2.9497   -0.3035    0.5808 H   0  0  0  0  0  0  0  0  0  0  0  0
    2.5884   -1.5403   -0.6432 H   0  0  0  0  0  0  0  0  0  0  0  0
    2.5576   -1.9500    1.0796 H   0  0  0  0  0  0  0  0  0  0  0  0
    0.6263   -0.4129    1.4196 H   0  0  0  0  0  0  0  0  0  0  0  0
    0.2766   -1.7554    0.3362 H   0  0  0  0  0  0  0  0  0  0  0  0
    0.6821   -0.2473   -1.6423 H   0  0  0  0  0  0  0  0  0  0  0  0
    2.1736    1.4174   -0.7385 H   0  0  0  0  0  0  0  0  0  0  0  0
    0.7091    2.2480   -1.2496 H   0  0  0  0  0  0  0  0  0  0  0  0
    0.9944    1.9362    0.4732 H   0  0  0  0  0  0  0  0  0  0  0  0
   -1.3638    1.1257   -1.4928 H   0  0  0  0  0  0  0  0  0  0  0  0
   -2.9493   -0.6899   -1.3376 H   0  0  0  0  0  0  0  0  0  0  0  0
   -1.4660   -1.3027   -2.0774 H   0  0  0  0  0  0  0  0  0  0  0  0
   -1.8434   -1.6822   -0.3852 H   0  0  0  0  0  0  0  0  0  0  0  0
   -1.2956    1.8348    0.8980 H   0  0  0  0  0  0  0  0  0  0  0  0
   -2.8314    1.0852    0.4669 H   0  0  0  0  0  0  0  0  0  0  0  0
   -1.6470    0.1711    1.4039 H   0  0  0  0  0  0  0  0  0  0  0  0
  1  2  1  0
  2  3  1  0
  3  4  1  0
  3  5  1  0
  5  6  1  0
  5  7  1  0
  1  8  1  0
  1  9  1  0
  1 10  1  0
  2 11  1  0
  2 12  1  0
  3 13  1  0
  4 14  1  0
  4 15  1  0
  4 16  1  0
  5 17  1  0
  6 18  1  0
  6 19  1  0
  6 20  1  0
  7 21  1  0
  7 22  1  0
  7 23  1  0
M  END
>  <Energy>  (2) 
7.408693449247591

>  <Real charge>  (2) 
0

>  <Mult>  (2) 
1

$$$$
mol_807 23
     RDKit          3D

 23 22  0  0  0  0  0  0  0  0999 V2000
    2.6629    0.9377   -0.0053 C   0  0  0  0  0  0  0  0  0  0  0  0
    1.1870    1.0030    0.3665 C   0  0  0  0  0  0  0  0  0  0  0  0
    0.3137   -0.0225   -0.3912 C   0  0  0  0  0  0  0  0  0  0  0  0
    0.6814   -1.4591    0.0004 C   0  0  0  0  0  0  0  0  0  0  0  0
   -1.1993    0.2955   -0.2060 C   0  0  0  0  0  0  0  0  0  0  0  0
   -1.7060    0.1018    1.2259 C   0  0  0  0  0  0  0  0  0  0  0  0
   -2.0741   -0.5094   -1.1739 C   0  0  0  0  0  0  0  0  0  0  0  0
    3.1190   -0.0022    0.3182 H   0  0  0  0  0  0  0  0  0  0  0  0
    2.8015    1.0384   -1.0863 H   0  0  0  0  0  0  0  0  0  0  0  0
    3.2077    1.7526    0.4824 H   0  0  0  0  0  0  0  0  0  0  0  0
    1.0931    0.8620    1.4493 H   0  0  0  0  0  0  0  0  0  0  0  0
    0.8289    2.0158    0.1447 H   0  0  0  0  0  0  0  0  0  0  0  0
    0.5351    0.0895   -1.4617 H   0  0  0  0  0  0  0  0  0  0  0  0
    0.5958   -1.6170    1.0801 H   0  0  0  0  0  0  0  0  0  0  0  0
    1.7113   -1.6923   -0.2878 H   0  0  0  0  0  0  0  0  0  0  0  0
    0.0438   -2.1905   -0.5039 H   0  0  0  0  0  0  0  0  0  0  0  0
   -1.3453    1.3537   -0.4628 H   0  0  0  0  0  0  0  0  0  0  0  0
   -2.7579    0.3991    1.3019 H   0  0  0  0  0  0  0  0  0  0  0  0
   -1.6369   -0.9435    1.5431 H   0  0  0  0  0  0  0  0  0  0  0  0
   -1.1449    0.7147    1.9370 H   0  0  0  0  0  0  0  0  0  0  0  0
   -1.7230   -0.3966   -2.2049 H   0  0  0  0  0  0  0  0  0  0  0  0
   -3.1102   -0.1551   -1.1371 H   0  0  0  0  0  0  0  0  0  0  0  0
   -2.0835   -1.5757   -0.9283 H   0  0  0  0  0  0  0  0  0  0  0  0
  1  2  1  0
  2  3  1  0
  3  4  1  0
  3  5  1  0
  5  6  1  0
  5  7  1  0
  1  8  1  0
  1  9  1  0
  1 10  1  0
  2 11  1  0
  2 12  1  0
  3 13  1  0
  4 14  1  0
  4 15  1  0
  4 16  1  0
  5 17  1  0
  6 18  1  0
  6 19  1  0
  6 20  1  0
  7 21  1  0
  7 22  1  0
  7 23  1  0
M  END
>  <Energy>  (3) 
7.413479130992162

>  <Real charge>  (3) 
0

>  <Mult>  (3) 
1

$$$$
mol_807 155
     RDKit          3D

 23 22  0  0  0  0  0  0  0  0999 V2000
   -2.2126   -0.8402    0.2018 C   0  0  0  0  0  0  0  0  0  0  0  0
   -1.3020   -0.4664   -0.9601 C   0  0  0  0  0  0  0  0  0  0  0  0
   -0.1102    0.4484   -0.5937 C   0  0  0  0  0  0  0  0  0  0  0  0
   -0.6230    1.8339   -0.1738 C   0  0  0  0  0  0  0  0  0  0  0  0
    0.8553   -0.1591    0.4661 C   0  0  0  0  0  0  0  0  0  0  0  0
    1.3727   -1.5421    0.0516 C   0  0  0  0  0  0  0  0  0  0  0  0
    2.0610    0.7524    0.7328 C   0  0  0  0  0  0  0  0  0  0  0  0
   -1.6782   -1.4101    0.9669 H   0  0  0  0  0  0  0  0  0  0  0  0
   -3.0363   -1.4652   -0.1587 H   0  0  0  0  0  0  0  0  0  0  0  0
   -2.6508    0.0454    0.6707 H   0  0  0  0  0  0  0  0  0  0  0  0
   -0.9338   -1.3841   -1.4326 H   0  0  0  0  0  0  0  0  0  0  0  0
   -1.9088    0.0325   -1.7269 H   0  0  0  0  0  0  0  0  0  0  0  0
    0.4614    0.5922   -1.5216 H   0  0  0  0  0  0  0  0  0  0  0  0
   -1.3870    2.1974   -0.8696 H   0  0  0  0  0  0  0  0  0  0  0  0
   -1.0579    1.8147    0.8306 H   0  0  0  0  0  0  0  0  0  0  0  0
    0.1847    2.5725   -0.1784 H   0  0  0  0  0  0  0  0  0  0  0  0
    0.3196   -0.2724    1.4168 H   0  0  0  0  0  0  0  0  0  0  0  0
    2.1051   -1.9175    0.7748 H   0  0  0  0  0  0  0  0  0  0  0  0
    1.8566   -1.5054   -0.9302 H   0  0  0  0  0  0  0  0  0  0  0  0
    0.5646   -2.2781    0.0094 H   0  0  0  0  0  0  0  0  0  0  0  0
    1.7551    1.6975    1.1912 H   0  0  0  0  0  0  0  0  0  0  0  0
    2.7637    0.2771    1.4261 H   0  0  0  0  0  0  0  0  0  0  0  0
    2.6007    0.9768   -0.1934 H   0  0  0  0  0  0  0  0  0  0  0  0
  1  2  1  0
  2  3  1  0
  3  4  1  0
  3  5  1  0
  5  6  1  0
  5  7  1  0
  1  8  1  0
  1  9  1  0
  1 10  1  0
  2 11  1  0
  2 12  1  0
  3 13  1  0
  4 14  1  0
  4 15  1  0
  4 16  1  0
  5 17  1  0
  6 18  1  0
  6 19  1  0
  6 20  1  0
  7 21  1  0
  7 22  1  0
  7 23  1  0
M  END
>  <Energy>  (4) 
7.736273224128864

>  <Real charge>  (4) 
0

>  <Mult>  (4) 
1

$$$$
