mol_945 295
     RDKit          3D

 47 50  0  0  0  0  0  0  0  0999 V2000
    3.1468    1.2613    1.3838 C   0  0  0  0  0  0  0  0  0  0  0  0
    2.7252    0.5683    0.0877 C   0  0  0  0  0  0  0  0  0  0  0  0
    1.9071    1.4955   -0.8224 C   0  0  0  0  0  0  0  0  0  0  0  0
    0.4614    1.6572   -0.3628 C   0  0  0  0  0  0  0  0  0  0  0  0
   -0.2627    0.3003   -0.2507 C   0  0  0  0  0  0  0  0  0  0  0  0
    0.5141   -0.6279    0.7188 C   0  0  0  0  0  0  0  0  0  0  0  0
   -0.1706   -1.9987    0.8215 C   0  0  0  0  0  0  0  0  0  0  0  0
   -1.6157   -1.8649    1.2789 C   0  0  0  0  0  0  0  0  0  0  0  0
   -2.3982   -0.9477    0.3708 C   0  0  0  0  0  0  0  0  0  0  0  0
   -3.5718   -1.3610   -0.1401 C   0  0  0  0  0  0  0  0  0  0  0  0
   -4.4376   -0.4606   -0.9350 C   0  0  0  0  0  0  0  0  0  0  0  0
   -5.4835   -0.8936   -1.4120 O   0  0  0  0  0  0  0  0  0  0  0  0
   -4.0353    0.9851   -1.0515 C   0  0  0  0  0  0  0  0  0  0  0  0
   -2.5192    1.1132   -1.0938 C   0  0  0  0  0  0  0  0  0  0  0  0
   -1.7958    0.4387    0.1111 C   0  0  0  0  0  0  0  0  0  0  0  0
   -2.0197    1.3009    1.3746 C   0  0  0  0  0  0  0  0  0  0  0  0
    2.0112   -0.7752    0.3655 C   0  0  0  0  0  0  0  0  0  0  0  0
    2.3289   -1.6230   -0.8753 C   0  0  0  0  0  0  0  0  0  0  0  0
    3.7978   -1.3341   -1.1634 C   0  0  0  0  0  0  0  0  0  0  0  0
    3.9449    0.0893   -0.6901 C   0  0  0  0  0  0  0  0  0  0  0  0
    4.9360    0.7741   -0.9128 O   0  0  0  0  0  0  0  0  0  0  0  0
    3.8212    0.6271    1.9707 H   0  0  0  0  0  0  0  0  0  0  0  0
    3.6867    2.1921    1.1761 H   0  0  0  0  0  0  0  0  0  0  0  0
    2.2851    1.5056    2.0126 H   0  0  0  0  0  0  0  0  0  0  0  0
    2.3821    2.4836   -0.8770 H   0  0  0  0  0  0  0  0  0  0  0  0
    1.9049    1.1180   -1.8539 H   0  0  0  0  0  0  0  0  0  0  0  0
   -0.0489    2.3070   -1.0810 H   0  0  0  0  0  0  0  0  0  0  0  0
    0.4502    2.1796    0.6002 H   0  0  0  0  0  0  0  0  0  0  0  0
   -0.2163   -0.1708   -1.2439 H   0  0  0  0  0  0  0  0  0  0  0  0
    0.4809   -0.1698    1.7169 H   0  0  0  0  0  0  0  0  0  0  0  0
   -0.1505   -2.5114   -0.1482 H   0  0  0  0  0  0  0  0  0  0  0  0
    0.3727   -2.6342    1.5311 H   0  0  0  0  0  0  0  0  0  0  0  0
   -2.0668   -2.8640    1.3202 H   0  0  0  0  0  0  0  0  0  0  0  0
   -1.6462   -1.4709    2.3020 H   0  0  0  0  0  0  0  0  0  0  0  0
   -3.9795   -2.3492    0.0437 H   0  0  0  0  0  0  0  0  0  0  0  0
   -4.4667    1.5394   -0.2121 H   0  0  0  0  0  0  0  0  0  0  0  0
   -4.4557    1.3889   -1.9793 H   0  0  0  0  0  0  0  0  0  0  0  0
   -2.1686    0.6584   -2.0310 H   0  0  0  0  0  0  0  0  0  0  0  0
   -2.2646    2.1779   -1.1531 H   0  0  0  0  0  0  0  0  0  0  0  0
   -1.7661    2.3513    1.1956 H   0  0  0  0  0  0  0  0  0  0  0  0
   -3.0668    1.2774    1.6985 H   0  0  0  0  0  0  0  0  0  0  0  0
   -1.4176    0.9572    2.2216 H   0  0  0  0  0  0  0  0  0  0  0  0
    2.5013   -1.2704    1.2182 H   0  0  0  0  0  0  0  0  0  0  0  0
    2.1701   -2.6920   -0.7022 H   0  0  0  0  0  0  0  0  0  0  0  0
    1.7140   -1.3292   -1.7331 H   0  0  0  0  0  0  0  0  0  0  0  0
    4.0274   -1.4237   -2.2273 H   0  0  0  0  0  0  0  0  0  0  0  0
    4.4543   -1.9750   -0.5680 H   0  0  0  0  0  0  0  0  0  0  0  0
  1  2  1  0
  2  3  1  0
  3  4  1  0
  4  5  1  0
  5  6  1  0
  6  7  1  0
  7  8  1  0
  8  9  1  0
  9 10  2  0
 10 11  1  0
 11 12  2  0
 11 13  1  0
 13 14  1  0
 14 15  1  0
 15 16  1  0
  6 17  1  0
 17 18  1  0
 18 19  1  0
 19 20  1  0
 20 21  2  0
 15  5  1  0
 15  9  1  0
 17  2  1  0
 20  2  1  0
  1 22  1  0
  1 23  1  0
  1 24  1  0
  3 25  1  0
  3 26  1  0
  4 27  1  0
  4 28  1  0
  5 29  1  0
  6 30  1  0
  7 31  1  0
  7 32  1  0
  8 33  1  0
  8 34  1  0
 10 35  1  0
 13 36  1  0
 13 37  1  0
 14 38  1  0
 14 39  1  0
 16 40  1  0
 16 41  1  0
 16 42  1  0
 17 43  1  0
 18 44  1  0
 18 45  1  0
 19 46  1  0
 19 47  1  0
M  END
>  <Energy>  (1) 
59.044866022503186

>  <Real charge>  (1) 
0

>  <Mult>  (1) 
1

$$$$
mol_945 214
     RDKit          3D

 47 50  0  0  0  0  0  0  0  0999 V2000
   -3.6024    1.9349   -0.6754 C   0  0  0  0  0  0  0  0  0  0  0  0
   -2.5657    0.7967   -0.6357 C   0  0  0  0  0  0  0  0  0  0  0  0
   -1.5850    0.9832   -1.7931 C   0  0  0  0  0  0  0  0  0  0  0  0
   -0.3601    0.0835   -1.7120 C   0  0  0  0  0  0  0  0  0  0  0  0
    0.3880    0.2908   -0.3850 C   0  0  0  0  0  0  0  0  0  0  0  0
   -0.5488   -0.1041    0.7836 C   0  0  0  0  0  0  0  0  0  0  0  0
    0.1677    0.1301    2.1272 C   0  0  0  0  0  0  0  0  0  0  0  0
    1.4720   -0.6489    2.2134 C   0  0  0  0  0  0  0  0  0  0  0  0
    2.3906   -0.3218    1.0634 C   0  0  0  0  0  0  0  0  0  0  0  0
    3.6675    0.0218    1.3096 C   0  0  0  0  0  0  0  0  0  0  0  0
    4.6427    0.2362    0.2166 C   0  0  0  0  0  0  0  0  0  0  0  0
    5.7890    0.5838    0.4888 O   0  0  0  0  0  0  0  0  0  0  0  0
    4.2045   -0.0686   -1.1905 C   0  0  0  0  0  0  0  0  0  0  0  0
    2.7309    0.2664   -1.3731 C   0  0  0  0  0  0  0  0  0  0  0  0
    1.7920   -0.4327   -0.3431 C   0  0  0  0  0  0  0  0  0  0  0  0
    1.6822   -1.9319   -0.7032 C   0  0  0  0  0  0  0  0  0  0  0  0
   -1.9019    0.6695    0.7596 C   0  0  0  0  0  0  0  0  0  0  0  0
   -2.9714   -0.0725    1.5880 C   0  0  0  0  0  0  0  0  0  0  0  0
   -3.5424   -1.1333    0.6503 C   0  0  0  0  0  0  0  0  0  0  0  0
   -3.3398   -0.5139   -0.7099 C   0  0  0  0  0  0  0  0  0  0  0  0
   -3.7641   -1.0134   -1.7447 O   0  0  0  0  0  0  0  0  0  0  0  0
   -4.4117    1.7929    0.0484 H   0  0  0  0  0  0  0  0  0  0  0  0
   -3.1312    2.9017   -0.4672 H   0  0  0  0  0  0  0  0  0  0  0  0
   -4.0747    1.9967   -1.6632 H   0  0  0  0  0  0  0  0  0  0  0  0
   -1.2411    2.0261   -1.8152 H   0  0  0  0  0  0  0  0  0  0  0  0
   -2.0876    0.8056   -2.7523 H   0  0  0  0  0  0  0  0  0  0  0  0
    0.2834    0.3178   -2.5655 H   0  0  0  0  0  0  0  0  0  0  0  0
   -0.6688   -0.9625   -1.8233 H   0  0  0  0  0  0  0  0  0  0  0  0
    0.5813    1.3701   -0.2813 H   0  0  0  0  0  0  0  0  0  0  0  0
   -0.7610   -1.1776    0.7001 H   0  0  0  0  0  0  0  0  0  0  0  0
    0.3713    1.2011    2.2590 H   0  0  0  0  0  0  0  0  0  0  0  0
   -0.4700   -0.1721    2.9646 H   0  0  0  0  0  0  0  0  0  0  0  0
    1.2605   -1.7251    2.2100 H   0  0  0  0  0  0  0  0  0  0  0  0
    1.9488   -0.4321    3.1772 H   0  0  0  0  0  0  0  0  0  0  0  0
    4.0724    0.1073    2.3123 H   0  0  0  0  0  0  0  0  0  0  0  0
    4.7993    0.5413   -1.8794 H   0  0  0  0  0  0  0  0  0  0  0  0
    4.4109   -1.1223   -1.4029 H   0  0  0  0  0  0  0  0  0  0  0  0
    2.4452    0.0069   -2.3991 H   0  0  0  0  0  0  0  0  0  0  0  0
    2.6193    1.3564   -1.2867 H   0  0  0  0  0  0  0  0  0  0  0  0
    0.9354   -2.4501   -0.0934 H   0  0  0  0  0  0  0  0  0  0  0  0
    2.6341   -2.4539   -0.5510 H   0  0  0  0  0  0  0  0  0  0  0  0
    1.4047   -2.0739   -1.7532 H   0  0  0  0  0  0  0  0  0  0  0  0
   -1.7345    1.6691    1.1815 H   0  0  0  0  0  0  0  0  0  0  0  0
   -2.5893   -0.5229    2.5078 H   0  0  0  0  0  0  0  0  0  0  0  0
   -3.7639    0.6242    1.8868 H   0  0  0  0  0  0  0  0  0  0  0  0
   -2.9762   -2.0669    0.7064 H   0  0  0  0  0  0  0  0  0  0  0  0
   -4.6020   -1.3135    0.8448 H   0  0  0  0  0  0  0  0  0  0  0  0
  1  2  1  0
  2  3  1  0
  3  4  1  0
  4  5  1  0
  5  6  1  0
  6  7  1  0
  7  8  1  0
  8  9  1  0
  9 10  2  0
 10 11  1  0
 11 12  2  0
 11 13  1  0
 13 14  1  0
 14 15  1  0
 15 16  1  0
  6 17  1  0
 17 18  1  0
 18 19  1  0
 19 20  1  0
 20 21  2  0
 15  5  1  0
 15  9  1  0
 17  2  1  0
 20  2  1  0
  1 22  1  0
  1 23  1  0
  1 24  1  0
  3 25  1  0
  3 26  1  0
  4 27  1  0
  4 28  1  0
  5 29  1  0
  6 30  1  0
  7 31  1  0
  7 32  1  0
  8 33  1  0
  8 34  1  0
 10 35  1  0
 13 36  1  0
 13 37  1  0
 14 38  1  0
 14 39  1  0
 16 40  1  0
 16 41  1  0
 16 42  1  0
 17 43  1  0
 18 44  1  0
 18 45  1  0
 19 46  1  0
 19 47  1  0
M  END
>  <Energy>  (2) 
59.640206978129996

>  <Real charge>  (2) 
0

>  <Mult>  (2) 
1

$$$$
