mol_469 133
     RDKit          3D

 31 32  0  0  0  0  0  0  0  0999 V2000
    4.1691   -1.3293    1.4931 C   0  0  0  0  0  0  0  0  0  0  0  0
    3.6345   -0.6459    0.3481 N   0  0  0  0  0  0  0  0  0  0  0  0
    2.5260    0.1527    0.4424 C   0  0  0  0  0  0  0  0  0  0  0  0
    1.9923    0.4716    1.4969 O   0  0  0  0  0  0  0  0  0  0  0  0
    2.1352    0.5303   -0.8309 O   0  0  0  0  0  0  0  0  0  0  0  0
    0.9306    1.2236   -0.8367 C   0  0  0  0  0  0  0  0  0  0  0  0
    0.9330    2.6091   -0.9955 C   0  0  0  0  0  0  0  0  0  0  0  0
   -0.2856    3.3053   -1.0373 C   0  0  0  0  0  0  0  0  0  0  0  0
   -1.5027    2.6212   -0.9349 C   0  0  0  0  0  0  0  0  0  0  0  0
   -1.4756    1.2431   -0.7888 C   0  0  0  0  0  0  0  0  0  0  0  0
   -2.6006    0.2835   -0.7068 C   0  0  0  0  0  0  0  0  0  0  0  0
   -1.8281   -1.0004   -0.3248 C   0  0  0  0  0  0  0  0  0  0  0  0
   -2.3141   -2.1996   -1.1400 C   0  0  0  0  0  0  0  0  0  0  0  0
   -1.9426   -1.3080    1.1743 C   0  0  0  0  0  0  0  0  0  0  0  0
   -0.4186   -0.8030   -0.6311 O   0  0  0  0  0  0  0  0  0  0  0  0
   -0.2757    0.5548   -0.7498 C   0  0  0  0  0  0  0  0  0  0  0  0
    4.1664   -0.6704    2.3656 H   0  0  0  0  0  0  0  0  0  0  0  0
    5.1901   -1.6439    1.2657 H   0  0  0  0  0  0  0  0  0  0  0  0
    3.5489   -2.2058    1.6988 H   0  0  0  0  0  0  0  0  0  0  0  0
    3.8621   -0.9619   -0.5841 H   0  0  0  0  0  0  0  0  0  0  0  0
    1.8716    3.1483   -1.0791 H   0  0  0  0  0  0  0  0  0  0  0  0
   -0.2821    4.3867   -1.1534 H   0  0  0  0  0  0  0  0  0  0  0  0
   -2.4431    3.1620   -0.9755 H   0  0  0  0  0  0  0  0  0  0  0  0
   -3.0829    0.1999   -1.6868 H   0  0  0  0  0  0  0  0  0  0  0  0
   -3.3463    0.5667    0.0420 H   0  0  0  0  0  0  0  0  0  0  0  0
   -1.7381   -3.0986   -0.8931 H   0  0  0  0  0  0  0  0  0  0  0  0
   -3.3745   -2.4044   -0.9607 H   0  0  0  0  0  0  0  0  0  0  0  0
   -2.1686   -2.0262   -2.2124 H   0  0  0  0  0  0  0  0  0  0  0  0
   -1.5635   -0.4768    1.7795 H   0  0  0  0  0  0  0  0  0  0  0  0
   -1.3371   -2.1826    1.4382 H   0  0  0  0  0  0  0  0  0  0  0  0
   -2.9801   -1.5019    1.4654 H   0  0  0  0  0  0  0  0  0  0  0  0
  1  2  1  0
  2  3  1  0
  3  4  2  0
  3  5  1  0
  5  6  1  0
  6  7  2  0
  7  8  1  0
  8  9  2  0
  9 10  1  0
 10 11  1  0
 11 12  1  0
 12 13  1  0
 12 14  1  0
 12 15  1  0
 15 16  1  0
 16  6  1  0
 16 10  2  0
  1 17  1  0
  1 18  1  0
  1 19  1  0
  2 20  1  0
  7 21  1  0
  8 22  1  0
  9 23  1  0
 11 24  1  0
 11 25  1  0
 13 26  1  0
 13 27  1  0
 13 28  1  0
 14 29  1  0
 14 30  1  0
 14 31  1  0
M  END
>  <Energy>  (1) 
4.851325852635808

>  <Real charge>  (1) 
0

>  <Mult>  (1) 
1

$$$$
mol_469 121
     RDKit          3D

 31 32  0  0  0  0  0  0  0  0999 V2000
    4.5196   -1.0770   -1.2001 C   0  0  0  0  0  0  0  0  0  0  0  0
    3.7313   -0.5994   -0.0981 N   0  0  0  0  0  0  0  0  0  0  0  0
    2.6684    0.2430   -0.2886 C   0  0  0  0  0  0  0  0  0  0  0  0
    2.3891    0.7716   -1.3566 O   0  0  0  0  0  0  0  0  0  0  0  0
    1.9930    0.3911    0.9103 O   0  0  0  0  0  0  0  0  0  0  0  0
    0.8182    1.1206    0.7717 C   0  0  0  0  0  0  0  0  0  0  0  0
    0.7983    2.4735    1.1097 C   0  0  0  0  0  0  0  0  0  0  0  0
   -0.3990    3.1982    1.0012 C   0  0  0  0  0  0  0  0  0  0  0  0
   -1.5741    2.5733    0.5673 C   0  0  0  0  0  0  0  0  0  0  0  0
   -1.5308    1.2215    0.2627 C   0  0  0  0  0  0  0  0  0  0  0  0
   -2.6047    0.3406   -0.2492 C   0  0  0  0  0  0  0  0  0  0  0  0
   -1.9006   -1.0327   -0.1496 C   0  0  0  0  0  0  0  0  0  0  0  0
   -2.0738   -1.8376   -1.4387 C   0  0  0  0  0  0  0  0  0  0  0  0
   -2.4151   -1.8441    1.0460 C   0  0  0  0  0  0  0  0  0  0  0  0
   -0.4737   -0.8198    0.0456 O   0  0  0  0  0  0  0  0  0  0  0  0
   -0.3526    0.5048    0.3711 C   0  0  0  0  0  0  0  0  0  0  0  0
    5.4635   -1.4652   -0.8107 H   0  0  0  0  0  0  0  0  0  0  0  0
    4.7125   -0.2678   -1.9095 H   0  0  0  0  0  0  0  0  0  0  0  0
    3.9699   -1.8769   -1.7032 H   0  0  0  0  0  0  0  0  0  0  0  0
    3.7408   -1.0915    0.7841 H   0  0  0  0  0  0  0  0  0  0  0  0
    1.7058    2.9673    1.4436 H   0  0  0  0  0  0  0  0  0  0  0  0
   -0.4100    4.2570    1.2490 H   0  0  0  0  0  0  0  0  0  0  0  0
   -2.4946    3.1403    0.4692 H   0  0  0  0  0  0  0  0  0  0  0  0
   -2.8420    0.6101   -1.2841 H   0  0  0  0  0  0  0  0  0  0  0  0
   -3.5153    0.3934    0.3552 H   0  0  0  0  0  0  0  0  0  0  0  0
   -3.1294   -2.0378   -1.6490 H   0  0  0  0  0  0  0  0  0  0  0  0
   -1.6433   -1.3021   -2.2927 H   0  0  0  0  0  0  0  0  0  0  0  0
   -1.5426   -2.7941   -1.3761 H   0  0  0  0  0  0  0  0  0  0  0  0
   -2.2616   -1.3017    1.9858 H   0  0  0  0  0  0  0  0  0  0  0  0
   -3.4817   -2.0709    0.9477 H   0  0  0  0  0  0  0  0  0  0  0  0
   -1.8655   -2.7876    1.1408 H   0  0  0  0  0  0  0  0  0  0  0  0
  1  2  1  0
  2  3  1  0
  3  4  2  0
  3  5  1  0
  5  6  1  0
  6  7  2  0
  7  8  1  0
  8  9  2  0
  9 10  1  0
 10 11  1  0
 11 12  1  0
 12 13  1  0
 12 14  1  0
 12 15  1  0
 15 16  1  0
 16  6  1  0
 16 10  2  0
  1 17  1  0
  1 18  1  0
  1 19  1  0
  2 20  1  0
  7 21  1  0
  8 22  1  0
  9 23  1  0
 11 24  1  0
 11 25  1  0
 13 26  1  0
 13 27  1  0
 13 28  1  0
 14 29  1  0
 14 30  1  0
 14 31  1  0
M  END
>  <Energy>  (2) 
5.109376499647147

>  <Real charge>  (2) 
0

>  <Mult>  (2) 
1

$$$$
mol_469 298
     RDKit          3D

 31 32  0  0  0  0  0  0  0  0999 V2000
    4.5910   -1.5786   -0.5094 C   0  0  0  0  0  0  0  0  0  0  0  0
    3.5150   -0.8118   -1.0728 N   0  0  0  0  0  0  0  0  0  0  0  0
    2.6355   -0.1070   -0.2966 C   0  0  0  0  0  0  0  0  0  0  0  0
    2.6404   -0.1087    0.9274 O   0  0  0  0  0  0  0  0  0  0  0  0
    1.7897    0.6163   -1.1196 O   0  0  0  0  0  0  0  0  0  0  0  0
    0.7900    1.2721   -0.4107 C   0  0  0  0  0  0  0  0  0  0  0  0
    0.9273    2.6277   -0.1127 C   0  0  0  0  0  0  0  0  0  0  0  0
   -0.0997    3.2951    0.5730 C   0  0  0  0  0  0  0  0  0  0  0  0
   -1.2637    2.6156    0.9509 C   0  0  0  0  0  0  0  0  0  0  0  0
   -1.3842    1.2749    0.6190 C   0  0  0  0  0  0  0  0  0  0  0  0
   -2.4773    0.3264    0.9302 C   0  0  0  0  0  0  0  0  0  0  0  0
   -2.0317   -0.8893    0.0845 C   0  0  0  0  0  0  0  0  0  0  0  0
   -2.8740   -1.0279   -1.1898 C   0  0  0  0  0  0  0  0  0  0  0  0
   -2.0998   -2.1831    0.8974 C   0  0  0  0  0  0  0  0  0  0  0  0
   -0.6471   -0.6999   -0.3227 O   0  0  0  0  0  0  0  0  0  0  0  0
   -0.3745    0.6158   -0.0589 C   0  0  0  0  0  0  0  0  0  0  0  0
    4.8850   -2.3463   -1.2288 H   0  0  0  0  0  0  0  0  0  0  0  0
    5.4339   -0.9087   -0.3209 H   0  0  0  0  0  0  0  0  0  0  0  0
    4.2808   -2.0457    0.4291 H   0  0  0  0  0  0  0  0  0  0  0  0
    3.4642   -0.6485   -2.0681 H   0  0  0  0  0  0  0  0  0  0  0  0
    1.8280    3.1622   -0.3987 H   0  0  0  0  0  0  0  0  0  0  0  0
    0.0152    4.3480    0.8196 H   0  0  0  0  0  0  0  0  0  0  0  0
   -2.0492    3.1305    1.4953 H   0  0  0  0  0  0  0  0  0  0  0  0
   -3.4603    0.7074    0.6373 H   0  0  0  0  0  0  0  0  0  0  0  0
   -2.4806    0.1054    2.0032 H   0  0  0  0  0  0  0  0  0  0  0  0
   -2.8050   -0.1257   -1.8080 H   0  0  0  0  0  0  0  0  0  0  0  0
   -2.5086   -1.8551   -1.8091 H   0  0  0  0  0  0  0  0  0  0  0  0
   -3.9284   -1.2074   -0.9561 H   0  0  0  0  0  0  0  0  0  0  0  0
   -1.4441   -2.1271    1.7739 H   0  0  0  0  0  0  0  0  0  0  0  0
   -1.7486   -3.0355    0.3047 H   0  0  0  0  0  0  0  0  0  0  0  0
   -3.1194   -2.3911    1.2375 H   0  0  0  0  0  0  0  0  0  0  0  0
  1  2  1  0
  2  3  1  0
  3  4  2  0
  3  5  1  0
  5  6  1  0
  6  7  2  0
  7  8  1  0
  8  9  2  0
  9 10  1  0
 10 11  1  0
 11 12  1  0
 12 13  1  0
 12 14  1  0
 12 15  1  0
 15 16  1  0
 16  6  1  0
 16 10  2  0
  1 17  1  0
  1 18  1  0
  1 19  1  0
  2 20  1  0
  7 21  1  0
  8 22  1  0
  9 23  1  0
 11 24  1  0
 11 25  1  0
 13 26  1  0
 13 27  1  0
 13 28  1  0
 14 29  1  0
 14 30  1  0
 14 31  1  0
M  END
>  <Energy>  (3) 
5.355676846215875

>  <Real charge>  (3) 
0

>  <Mult>  (3) 
1

$$$$
