mol_392 17
     RDKit          3D

 21 21  0  0  0  0  0  0  0  0999 V2000
    2.5852    0.0580   -0.1760 C   0  0  0  0  0  0  0  0  0  0  0  0
    1.1790   -0.3927    0.1183 C   0  0  0  0  0  0  0  0  0  0  0  0
    0.9916   -1.6415    0.7308 C   0  0  0  0  0  0  0  0  0  0  0  0
   -0.2860   -2.1035    1.0291 C   0  0  0  0  0  0  0  0  0  0  0  0
   -1.3942   -1.3198    0.7254 C   0  0  0  0  0  0  0  0  0  0  0  0
   -1.2414   -0.0663    0.1128 C   0  0  0  0  0  0  0  0  0  0  0  0
   -2.4767    0.7407   -0.1875 C   0  0  0  0  0  0  0  0  0  0  0  0
    0.0537    0.3943   -0.2251 C   0  0  0  0  0  0  0  0  0  0  0  0
    0.2367    1.7403   -0.8832 C   0  0  0  0  0  0  0  0  0  0  0  0
    2.7516    1.0718    0.2022 H   0  0  0  0  0  0  0  0  0  0  0  0
    2.7722    0.0314   -1.2540 H   0  0  0  0  0  0  0  0  0  0  0  0
    3.3241   -0.5892    0.3088 H   0  0  0  0  0  0  0  0  0  0  0  0
    1.8471   -2.2641    0.9834 H   0  0  0  0  0  0  0  0  0  0  0  0
   -0.4177   -3.0717    1.5041 H   0  0  0  0  0  0  0  0  0  0  0  0
   -2.3852   -1.6934    0.9738 H   0  0  0  0  0  0  0  0  0  0  0  0
   -2.6592    0.7639   -1.2664 H   0  0  0  0  0  0  0  0  0  0  0  0
   -2.3703    1.7625    0.1905 H   0  0  0  0  0  0  0  0  0  0  0  0
   -3.3628    0.3126    0.2936 H   0  0  0  0  0  0  0  0  0  0  0  0
   -0.6070    1.9916   -1.5329 H   0  0  0  0  0  0  0  0  0  0  0  0
    1.1197    1.7587   -1.5290 H   0  0  0  0  0  0  0  0  0  0  0  0
    0.3396    2.5164   -0.1186 H   0  0  0  0  0  0  0  0  0  0  0  0
  1  2  1  0
  2  3  2  0
  3  4  1  0
  4  5  2  0
  5  6  1  0
  6  7  1  0
  6  8  2  0
  8  9  1  0
  8  2  1  0
  1 10  1  0
  1 11  1  0
  1 12  1  0
  3 13  1  0
  4 14  1  0
  5 15  1  0
  7 16  1  0
  7 17  1  0
  7 18  1  0
  9 19  1  0
  9 20  1  0
  9 21  1  0
M  END
>  <Energy>  (1) 
26.572784411881265

>  <Real charge>  (1) 
0

>  <Mult>  (1) 
1

$$$$
