mol_457 319
     RDKit          3D

 34 35  0  0  0  0  0  0  0  0999 V2000
    5.6879    0.2587    0.6701 C   0  0  0  0  0  0  0  0  0  0  0  0
    4.4076    0.7252    0.0052 C   0  0  0  0  0  0  0  0  0  0  0  0
    3.3586   -0.1774    0.3738 O   0  0  0  0  0  0  0  0  0  0  0  0
    2.1412    0.1255   -0.1582 C   0  0  0  0  0  0  0  0  0  0  0  0
    1.9270    1.0799   -0.8937 O   0  0  0  0  0  0  0  0  0  0  0  0
    1.1650   -0.8433    0.2686 C   0  0  0  0  0  0  0  0  0  0  0  0
    1.3477   -1.9879    1.0258 C   0  0  0  0  0  0  0  0  0  0  0  0
    0.1823   -2.6842    1.1853 N   0  0  0  0  0  0  0  0  0  0  0  0
   -0.7229   -1.9819    0.5473 C   0  0  0  0  0  0  0  0  0  0  0  0
   -0.1925   -0.8453   -0.0078 N   0  0  0  0  0  0  0  0  0  0  0  0
   -0.9397    0.1448   -0.7977 C   0  0  0  0  0  0  0  0  0  0  0  0
   -0.9401   -0.2544   -2.2770 C   0  0  0  0  0  0  0  0  0  0  0  0
   -2.3140    0.4234   -0.1930 C   0  0  0  0  0  0  0  0  0  0  0  0
   -3.5077   -0.0658   -0.7477 C   0  0  0  0  0  0  0  0  0  0  0  0
   -4.7393    0.2086   -0.1471 C   0  0  0  0  0  0  0  0  0  0  0  0
   -4.7981    0.9725    1.0156 C   0  0  0  0  0  0  0  0  0  0  0  0
   -3.6257    1.4637    1.5819 C   0  0  0  0  0  0  0  0  0  0  0  0
   -2.3941    1.1916    0.9839 C   0  0  0  0  0  0  0  0  0  0  0  0
    5.5710    0.2366    1.7587 H   0  0  0  0  0  0  0  0  0  0  0  0
    5.9361   -0.7605    0.3559 H   0  0  0  0  0  0  0  0  0  0  0  0
    6.5219    0.9193    0.4176 H   0  0  0  0  0  0  0  0  0  0  0  0
    4.1615    1.7372    0.3457 H   0  0  0  0  0  0  0  0  0  0  0  0
    4.5335    0.7214   -1.0832 H   0  0  0  0  0  0  0  0  0  0  0  0
    2.2741   -2.3528    1.4528 H   0  0  0  0  0  0  0  0  0  0  0  0
   -1.7695   -2.2474    0.4634 H   0  0  0  0  0  0  0  0  0  0  0  0
   -0.3968    1.0926   -0.7187 H   0  0  0  0  0  0  0  0  0  0  0  0
    0.0834   -0.3183   -2.6634 H   0  0  0  0  0  0  0  0  0  0  0  0
   -1.4023   -1.2352   -2.4362 H   0  0  0  0  0  0  0  0  0  0  0  0
   -1.4795    0.4808   -2.8839 H   0  0  0  0  0  0  0  0  0  0  0  0
   -3.5053   -0.6717   -1.6502 H   0  0  0  0  0  0  0  0  0  0  0  0
   -5.6555   -0.1776   -0.5875 H   0  0  0  0  0  0  0  0  0  0  0  0
   -5.7574    1.1826    1.4814 H   0  0  0  0  0  0  0  0  0  0  0  0
   -3.6685    2.0570    2.4918 H   0  0  0  0  0  0  0  0  0  0  0  0
   -1.4898    1.5824    1.4482 H   0  0  0  0  0  0  0  0  0  0  0  0
  1  2  1  0
  2  3  1  0
  3  4  1  0
  4  5  2  0
  4  6  1  0
  6  7  2  0
  7  8  1  0
  8  9  2  0
  9 10  1  0
 10 11  1  0
 11 12  1  0
 11 13  1  0
 13 14  2  0
 14 15  1  0
 15 16  2  0
 16 17  1  0
 17 18  2  0
 10  6  1  0
 18 13  1  0
  1 19  1  0
  1 20  1  0
  1 21  1  0
  2 22  1  0
  2 23  1  0
  7 24  1  0
  9 25  1  0
 11 26  1  0
 12 27  1  0
 12 28  1  0
 12 29  1  0
 14 30  1  0
 15 31  1  0
 16 32  1  0
 17 33  1  0
 18 34  1  0
M  END
>  <Energy>  (1) 
13.229087824216865

>  <Real charge>  (1) 
0

>  <Mult>  (1) 
1

$$$$
mol_457 174
     RDKit          3D

 34 35  0  0  0  0  0  0  0  0999 V2000
    4.9075    1.6981   -0.9389 C   0  0  0  0  0  0  0  0  0  0  0  0
    3.7634    1.2751   -0.0383 C   0  0  0  0  0  0  0  0  0  0  0  0
    2.8930    0.4240   -0.7923 O   0  0  0  0  0  0  0  0  0  0  0  0
    1.8074   -0.0269   -0.1015 C   0  0  0  0  0  0  0  0  0  0  0  0
    1.5771    0.2442    1.0697 O   0  0  0  0  0  0  0  0  0  0  0  0
    1.0019   -0.8655   -0.9525 C   0  0  0  0  0  0  0  0  0  0  0  0
    1.2555   -1.2809   -2.2492 C   0  0  0  0  0  0  0  0  0  0  0  0
    0.2578   -2.0790   -2.7338 N   0  0  0  0  0  0  0  0  0  0  0  0
   -0.6172   -2.1531   -1.7609 C   0  0  0  0  0  0  0  0  0  0  0  0
   -0.2228   -1.4431   -0.6557 N   0  0  0  0  0  0  0  0  0  0  0  0
   -0.9823   -1.3256    0.5933 C   0  0  0  0  0  0  0  0  0  0  0  0
   -1.7508   -2.5993    0.9771 C   0  0  0  0  0  0  0  0  0  0  0  0
   -1.8878   -0.1031    0.5589 C   0  0  0  0  0  0  0  0  0  0  0  0
   -1.6258    0.9823    1.4113 C   0  0  0  0  0  0  0  0  0  0  0  0
   -2.4418    2.1152    1.4001 C   0  0  0  0  0  0  0  0  0  0  0  0
   -3.5325    2.1811    0.5375 C   0  0  0  0  0  0  0  0  0  0  0  0
   -3.8075    1.1151   -0.3150 C   0  0  0  0  0  0  0  0  0  0  0  0
   -2.9924   -0.0191   -0.3053 C   0  0  0  0  0  0  0  0  0  0  0  0
    5.4547    0.8225   -1.3038 H   0  0  0  0  0  0  0  0  0  0  0  0
    4.5292    2.2269   -1.8200 H   0  0  0  0  0  0  0  0  0  0  0  0
    5.6027    2.3523   -0.4055 H   0  0  0  0  0  0  0  0  0  0  0  0
    3.2134    2.1601    0.3010 H   0  0  0  0  0  0  0  0  0  0  0  0
    4.1562    0.7293    0.8268 H   0  0  0  0  0  0  0  0  0  0  0  0
    2.1193   -1.0420   -2.8579 H   0  0  0  0  0  0  0  0  0  0  0  0
   -1.5474   -2.7037   -1.8117 H   0  0  0  0  0  0  0  0  0  0  0  0
   -0.2376   -1.2041    1.3868 H   0  0  0  0  0  0  0  0  0  0  0  0
   -2.5592   -2.8339    0.2767 H   0  0  0  0  0  0  0  0  0  0  0  0
   -2.2044   -2.4890    1.9687 H   0  0  0  0  0  0  0  0  0  0  0  0
   -1.0776   -3.4634    1.0094 H   0  0  0  0  0  0  0  0  0  0  0  0
   -0.7758    0.9581    2.0918 H   0  0  0  0  0  0  0  0  0  0  0  0
   -2.2223    2.9475    2.0640 H   0  0  0  0  0  0  0  0  0  0  0  0
   -4.1660    3.0641    0.5273 H   0  0  0  0  0  0  0  0  0  0  0  0
   -4.6564    1.1675   -0.9922 H   0  0  0  0  0  0  0  0  0  0  0  0
   -3.2315   -0.8318   -0.9871 H   0  0  0  0  0  0  0  0  0  0  0  0
  1  2  1  0
  2  3  1  0
  3  4  1  0
  4  5  2  0
  4  6  1  0
  6  7  2  0
  7  8  1  0
  8  9  2  0
  9 10  1  0
 10 11  1  0
 11 12  1  0
 11 13  1  0
 13 14  2  0
 14 15  1  0
 15 16  2  0
 16 17  1  0
 17 18  2  0
 10  6  1  0
 18 13  1  0
  1 19  1  0
  1 20  1  0
  1 21  1  0
  2 22  1  0
  2 23  1  0
  7 24  1  0
  9 25  1  0
 11 26  1  0
 12 27  1  0
 12 28  1  0
 12 29  1  0
 14 30  1  0
 15 31  1  0
 16 32  1  0
 17 33  1  0
 18 34  1  0
M  END
>  <Energy>  (2) 
13.351211385818942

>  <Real charge>  (2) 
0

>  <Mult>  (2) 
1

$$$$
mol_457 253
     RDKit          3D

 34 35  0  0  0  0  0  0  0  0999 V2000
    5.2532    0.1149   -0.0344 C   0  0  0  0  0  0  0  0  0  0  0  0
    4.3754    1.0507   -0.8440 C   0  0  0  0  0  0  0  0  0  0  0  0
    3.1947    1.3875   -0.1020 O   0  0  0  0  0  0  0  0  0  0  0  0
    2.1477    0.5234   -0.2192 C   0  0  0  0  0  0  0  0  0  0  0  0
    2.1607   -0.4951   -0.8970 O   0  0  0  0  0  0  0  0  0  0  0  0
    1.0414    0.9854    0.5793 C   0  0  0  0  0  0  0  0  0  0  0  0
    0.9780    2.0736    1.4329 C   0  0  0  0  0  0  0  0  0  0  0  0
   -0.2352    2.1617    2.0563 N   0  0  0  0  0  0  0  0  0  0  0  0
   -0.9291    1.1498    1.5934 C   0  0  0  0  0  0  0  0  0  0  0  0
   -0.2176    0.4159    0.6789 N   0  0  0  0  0  0  0  0  0  0  0  0
   -0.7055   -0.7873   -0.0119 C   0  0  0  0  0  0  0  0  0  0  0  0
   -0.3974   -2.0345    0.8232 C   0  0  0  0  0  0  0  0  0  0  0  0
   -2.1608   -0.6329   -0.4478 C   0  0  0  0  0  0  0  0  0  0  0  0
   -2.4565    0.2042   -1.5404 C   0  0  0  0  0  0  0  0  0  0  0  0
   -3.7719    0.3877   -1.9697 C   0  0  0  0  0  0  0  0  0  0  0  0
   -4.8147   -0.2607   -1.3149 C   0  0  0  0  0  0  0  0  0  0  0  0
   -4.5427   -1.0909   -0.2305 C   0  0  0  0  0  0  0  0  0  0  0  0
   -3.2268   -1.2760    0.2018 C   0  0  0  0  0  0  0  0  0  0  0  0
    5.4959    0.5595    0.9364 H   0  0  0  0  0  0  0  0  0  0  0  0
    4.7390   -0.8299    0.1680 H   0  0  0  0  0  0  0  0  0  0  0  0
    6.1839   -0.1011   -0.5664 H   0  0  0  0  0  0  0  0  0  0  0  0
    4.9118    1.9863   -1.0330 H   0  0  0  0  0  0  0  0  0  0  0  0
    4.1242    0.6216   -1.8208 H   0  0  0  0  0  0  0  0  0  0  0  0
    1.7609    2.7931    1.6401 H   0  0  0  0  0  0  0  0  0  0  0  0
   -1.9452    0.9101    1.8813 H   0  0  0  0  0  0  0  0  0  0  0  0
   -0.1371   -0.8735   -0.9440 H   0  0  0  0  0  0  0  0  0  0  0  0
    0.6809   -2.1340    0.9917 H   0  0  0  0  0  0  0  0  0  0  0  0
   -0.8714   -1.9934    1.8104 H   0  0  0  0  0  0  0  0  0  0  0  0
   -0.7402   -2.9431    0.3164 H   0  0  0  0  0  0  0  0  0  0  0  0
   -1.6576    0.7260   -2.0653 H   0  0  0  0  0  0  0  0  0  0  0  0
   -3.9819    1.0394   -2.8141 H   0  0  0  0  0  0  0  0  0  0  0  0
   -5.8394   -0.1172   -1.6475 H   0  0  0  0  0  0  0  0  0  0  0  0
   -5.3582   -1.5948    0.2827 H   0  0  0  0  0  0  0  0  0  0  0  0
   -3.0585   -1.9266    1.0563 H   0  0  0  0  0  0  0  0  0  0  0  0
  1  2  1  0
  2  3  1  0
  3  4  1  0
  4  5  2  0
  4  6  1  0
  6  7  2  0
  7  8  1  0
  8  9  2  0
  9 10  1  0
 10 11  1  0
 11 12  1  0
 11 13  1  0
 13 14  2  0
 14 15  1  0
 15 16  2  0
 16 17  1  0
 17 18  2  0
 10  6  1  0
 18 13  1  0
  1 19  1  0
  1 20  1  0
  1 21  1  0
  2 22  1  0
  2 23  1  0
  7 24  1  0
  9 25  1  0
 11 26  1  0
 12 27  1  0
 12 28  1  0
 12 29  1  0
 14 30  1  0
 15 31  1  0
 16 32  1  0
 17 33  1  0
 18 34  1  0
M  END
>  <Energy>  (3) 
13.665192537522138

>  <Real charge>  (3) 
0

>  <Mult>  (3) 
1

$$$$
mol_457 332
     RDKit          3D

 34 35  0  0  0  0  0  0  0  0999 V2000
   -4.8245   -0.6607   -1.1379 C   0  0  0  0  0  0  0  0  0  0  0  0
   -4.5555    0.5837   -0.3128 C   0  0  0  0  0  0  0  0  0  0  0  0
   -3.4625    0.3540    0.5875 O   0  0  0  0  0  0  0  0  0  0  0  0
   -2.2162    0.5812    0.0857 C   0  0  0  0  0  0  0  0  0  0  0  0
   -1.9852    0.9558   -1.0559 O   0  0  0  0  0  0  0  0  0  0  0  0
   -1.2264    0.3180    1.0984 C   0  0  0  0  0  0  0  0  0  0  0  0
   -1.4098   -0.0231    2.4277 C   0  0  0  0  0  0  0  0  0  0  0  0
   -0.2209   -0.1457    3.0907 N   0  0  0  0  0  0  0  0  0  0  0  0
    0.6980    0.1031    2.1888 C   0  0  0  0  0  0  0  0  0  0  0  0
    0.1511    0.3670    0.9590 N   0  0  0  0  0  0  0  0  0  0  0  0
    0.9099    0.6957   -0.2571 C   0  0  0  0  0  0  0  0  0  0  0  0
    1.1476    2.2073   -0.3362 C   0  0  0  0  0  0  0  0  0  0  0  0
    2.1587   -0.1728   -0.3909 C   0  0  0  0  0  0  0  0  0  0  0  0
    2.0094   -1.5234   -0.7589 C   0  0  0  0  0  0  0  0  0  0  0  0
    3.1189   -2.3613   -0.8828 C   0  0  0  0  0  0  0  0  0  0  0  0
    4.3963   -1.8652   -0.6404 C   0  0  0  0  0  0  0  0  0  0  0  0
    4.5643   -0.5327   -0.2730 C   0  0  0  0  0  0  0  0  0  0  0  0
    3.4553    0.3083   -0.1476 C   0  0  0  0  0  0  0  0  0  0  0  0
   -5.6938   -0.5161   -1.7856 H   0  0  0  0  0  0  0  0  0  0  0  0
   -3.9615   -0.9126   -1.7624 H   0  0  0  0  0  0  0  0  0  0  0  0
   -5.0082   -1.5214   -0.4865 H   0  0  0  0  0  0  0  0  0  0  0  0
   -5.4322    0.8142    0.3013 H   0  0  0  0  0  0  0  0  0  0  0  0
   -4.3713    1.4564   -0.9499 H   0  0  0  0  0  0  0  0  0  0  0  0
   -2.3503   -0.1714    2.9446 H   0  0  0  0  0  0  0  0  0  0  0  0
    1.7654    0.0986    2.3720 H   0  0  0  0  0  0  0  0  0  0  0  0
    0.2807    0.4221   -1.1106 H   0  0  0  0  0  0  0  0  0  0  0  0
    1.7114    2.5787    0.5270 H   0  0  0  0  0  0  0  0  0  0  0  0
    1.6985    2.4729   -1.2450 H   0  0  0  0  0  0  0  0  0  0  0  0
    0.1961    2.7508   -0.3530 H   0  0  0  0  0  0  0  0  0  0  0  0
    1.0193   -1.9354   -0.9487 H   0  0  0  0  0  0  0  0  0  0  0  0
    2.9846   -3.4022   -1.1660 H   0  0  0  0  0  0  0  0  0  0  0  0
    5.2606   -2.5174   -0.7352 H   0  0  0  0  0  0  0  0  0  0  0  0
    5.5624   -0.1464   -0.0807 H   0  0  0  0  0  0  0  0  0  0  0  0
    3.6296    1.3398    0.1480 H   0  0  0  0  0  0  0  0  0  0  0  0
  1  2  1  0
  2  3  1  0
  3  4  1  0
  4  5  2  0
  4  6  1  0
  6  7  2  0
  7  8  1  0
  8  9  2  0
  9 10  1  0
 10 11  1  0
 11 12  1  0
 11 13  1  0
 13 14  2  0
 14 15  1  0
 15 16  2  0
 16 17  1  0
 17 18  2  0
 10  6  1  0
 18 13  1  0
  1 19  1  0
  1 20  1  0
  1 21  1  0
  2 22  1  0
  2 23  1  0
  7 24  1  0
  9 25  1  0
 11 26  1  0
 12 27  1  0
 12 28  1  0
 12 29  1  0
 14 30  1  0
 15 31  1  0
 16 32  1  0
 17 33  1  0
 18 34  1  0
M  END
>  <Energy>  (4) 
13.668292875571703

>  <Real charge>  (4) 
0

>  <Mult>  (4) 
1

$$$$
mol_457 77
     RDKit          3D

 34 35  0  0  0  0  0  0  0  0999 V2000
    3.7125    2.0431    0.8547 C   0  0  0  0  0  0  0  0  0  0  0  0
    4.0465    0.6097    0.4862 C   0  0  0  0  0  0  0  0  0  0  0  0
    3.0202   -0.2751    0.9568 O   0  0  0  0  0  0  0  0  0  0  0  0
    1.9474   -0.4390    0.1316 C   0  0  0  0  0  0  0  0  0  0  0  0
    1.8264    0.1016   -0.9596 O   0  0  0  0  0  0  0  0  0  0  0  0
    1.0010   -1.3409    0.7380 C   0  0  0  0  0  0  0  0  0  0  0  0
    1.1272   -2.0719    1.9075 C   0  0  0  0  0  0  0  0  0  0  0  0
    0.0162   -2.8265    2.1598 N   0  0  0  0  0  0  0  0  0  0  0  0
   -0.8027   -2.5624    1.1711 C   0  0  0  0  0  0  0  0  0  0  0  0
   -0.2638   -1.6724    0.2777 N   0  0  0  0  0  0  0  0  0  0  0  0
   -0.9316   -1.1664   -0.9261 C   0  0  0  0  0  0  0  0  0  0  0  0
   -1.8496   -2.1915   -1.6090 C   0  0  0  0  0  0  0  0  0  0  0  0
   -1.6596    0.1365   -0.6287 C   0  0  0  0  0  0  0  0  0  0  0  0
   -2.7764    0.1869    0.2224 C   0  0  0  0  0  0  0  0  0  0  0  0
   -3.4263    1.3967    0.4772 C   0  0  0  0  0  0  0  0  0  0  0  0
   -2.9718    2.5727   -0.1139 C   0  0  0  0  0  0  0  0  0  0  0  0
   -1.8666    2.5412   -0.9597 C   0  0  0  0  0  0  0  0  0  0  0  0
   -1.2155    1.3329   -1.2158 C   0  0  0  0  0  0  0  0  0  0  0  0
    4.5178    2.7187    0.5530 H   0  0  0  0  0  0  0  0  0  0  0  0
    2.7852    2.3678    0.3721 H   0  0  0  0  0  0  0  0  0  0  0  0
    3.5587    2.1363    1.9348 H   0  0  0  0  0  0  0  0  0  0  0  0
    4.9770    0.3108    0.9798 H   0  0  0  0  0  0  0  0  0  0  0  0
    4.2053    0.4982   -0.5925 H   0  0  0  0  0  0  0  0  0  0  0  0
    1.9755   -2.0916    2.5810 H   0  0  0  0  0  0  0  0  0  0  0  0
   -1.7924   -2.9864    1.0632 H   0  0  0  0  0  0  0  0  0  0  0  0
   -0.1349   -0.9810   -1.6541 H   0  0  0  0  0  0  0  0  0  0  0  0
   -1.3044   -3.1171   -1.8253 H   0  0  0  0  0  0  0  0  0  0  0  0
   -2.2280   -1.7945   -2.5580 H   0  0  0  0  0  0  0  0  0  0  0  0
   -2.7204   -2.4530   -0.9987 H   0  0  0  0  0  0  0  0  0  0  0  0
   -3.1528   -0.7125    0.7038 H   0  0  0  0  0  0  0  0  0  0  0  0
   -4.2866    1.4211    1.1414 H   0  0  0  0  0  0  0  0  0  0  0  0
   -3.4768    3.5138    0.0872 H   0  0  0  0  0  0  0  0  0  0  0  0
   -1.5070    3.4583   -1.4194 H   0  0  0  0  0  0  0  0  0  0  0  0
   -0.3498    1.3362   -1.8767 H   0  0  0  0  0  0  0  0  0  0  0  0
  1  2  1  0
  2  3  1  0
  3  4  1  0
  4  5  2  0
  4  6  1  0
  6  7  2  0
  7  8  1  0
  8  9  2  0
  9 10  1  0
 10 11  1  0
 11 12  1  0
 11 13  1  0
 13 14  2  0
 14 15  1  0
 15 16  2  0
 16 17  1  0
 17 18  2  0
 10  6  1  0
 18 13  1  0
  1 19  1  0
  1 20  1  0
  1 21  1  0
  2 22  1  0
  2 23  1  0
  7 24  1  0
  9 25  1  0
 11 26  1  0
 12 27  1  0
 12 28  1  0
 12 29  1  0
 14 30  1  0
 15 31  1  0
 16 32  1  0
 17 33  1  0
 18 34  1  0
M  END
>  <Energy>  (5) 
13.732139817484645

>  <Real charge>  (5) 
0

>  <Mult>  (5) 
1

$$$$
mol_457 318
     RDKit          3D

 34 35  0  0  0  0  0  0  0  0999 V2000
   -4.8482    0.3045   -0.5922 C   0  0  0  0  0  0  0  0  0  0  0  0
   -3.7105    1.0406   -1.2744 C   0  0  0  0  0  0  0  0  0  0  0  0
   -2.6433    0.1310   -1.5766 O   0  0  0  0  0  0  0  0  0  0  0  0
   -1.7303   -0.0717   -0.5845 C   0  0  0  0  0  0  0  0  0  0  0  0
   -1.7839    0.4513    0.5205 O   0  0  0  0  0  0  0  0  0  0  0  0
   -0.7210   -0.9970   -1.0346 C   0  0  0  0  0  0  0  0  0  0  0  0
   -0.6543   -1.6911   -2.2312 C   0  0  0  0  0  0  0  0  0  0  0  0
    0.4558   -2.4848   -2.2998 N   0  0  0  0  0  0  0  0  0  0  0  0
    1.0853   -2.2824   -1.1683 C   0  0  0  0  0  0  0  0  0  0  0  0
    0.4220   -1.3957   -0.3591 N   0  0  0  0  0  0  0  0  0  0  0  0
    0.8685   -0.9599    0.9681 C   0  0  0  0  0  0  0  0  0  0  0  0
    1.5730   -2.0578    1.7797 C   0  0  0  0  0  0  0  0  0  0  0  0
    1.7134    0.3014    0.8638 C   0  0  0  0  0  0  0  0  0  0  0  0
    2.9836    0.2989    0.2632 C   0  0  0  0  0  0  0  0  0  0  0  0
    3.7379    1.4717    0.1823 C   0  0  0  0  0  0  0  0  0  0  0  0
    3.2363    2.6630    0.6998 C   0  0  0  0  0  0  0  0  0  0  0  0
    1.9794    2.6839    1.2978 C   0  0  0  0  0  0  0  0  0  0  0  0
    1.2237    1.5127    1.3797 C   0  0  0  0  0  0  0  0  0  0  0  0
   -5.1898   -0.5323   -1.2103 H   0  0  0  0  0  0  0  0  0  0  0  0
   -4.5257   -0.1177    0.3648 H   0  0  0  0  0  0  0  0  0  0  0  0
   -5.6915    0.9768   -0.4108 H   0  0  0  0  0  0  0  0  0  0  0  0
   -4.0584    1.4528   -2.2272 H   0  0  0  0  0  0  0  0  0  0  0  0
   -3.3574    1.8839   -0.6698 H   0  0  0  0  0  0  0  0  0  0  0  0
   -1.3627   -1.6569   -3.0503 H   0  0  0  0  0  0  0  0  0  0  0  0
    2.0212   -2.7510   -0.8934 H   0  0  0  0  0  0  0  0  0  0  0  0
   -0.0427   -0.7414    1.5344 H   0  0  0  0  0  0  0  0  0  0  0  0
    0.9420   -2.9506    1.8538 H   0  0  0  0  0  0  0  0  0  0  0  0
    1.7816   -1.7079    2.7972 H   0  0  0  0  0  0  0  0  0  0  0  0
    2.5290   -2.3621    1.3408 H   0  0  0  0  0  0  0  0  0  0  0  0
    3.4020   -0.6133   -0.1552 H   0  0  0  0  0  0  0  0  0  0  0  0
    4.7175    1.4553   -0.2890 H   0  0  0  0  0  0  0  0  0  0  0  0
    3.8231    3.5753    0.6340 H   0  0  0  0  0  0  0  0  0  0  0  0
    1.5833    3.6133    1.6992 H   0  0  0  0  0  0  0  0  0  0  0  0
    0.2412    1.5572    1.8477 H   0  0  0  0  0  0  0  0  0  0  0  0
  1  2  1  0
  2  3  1  0
  3  4  1  0
  4  5  2  0
  4  6  1  0
  6  7  2  0
  7  8  1  0
  8  9  2  0
  9 10  1  0
 10 11  1  0
 11 12  1  0
 11 13  1  0
 13 14  2  0
 14 15  1  0
 15 16  2  0
 16 17  1  0
 17 18  2  0
 10  6  1  0
 18 13  1  0
  1 19  1  0
  1 20  1  0
  1 21  1  0
  2 22  1  0
  2 23  1  0
  7 24  1  0
  9 25  1  0
 11 26  1  0
 12 27  1  0
 12 28  1  0
 12 29  1  0
 14 30  1  0
 15 31  1  0
 16 32  1  0
 17 33  1  0
 18 34  1  0
M  END
>  <Energy>  (6) 
13.799692351342673

>  <Real charge>  (6) 
0

>  <Mult>  (6) 
1

$$$$
