mol_1098 263
     RDKit          3D

 62 61  0  0  0  0  0  0  0  0999 V2000
  -10.0608   -0.9448    2.4471 C   0  0  0  0  0  0  0  0  0  0  0  0
   -8.7131   -1.3247    1.8547 C   0  0  0  0  0  0  0  0  0  0  0  0
   -8.2097   -0.2602    0.8801 C   0  0  0  0  0  0  0  0  0  0  0  0
   -6.8533   -0.6465    0.2856 C   0  0  0  0  0  0  0  0  0  0  0  0
   -6.3501    0.4229   -0.6866 C   0  0  0  0  0  0  0  0  0  0  0  0
   -5.0509    0.0358   -1.3987 C   0  0  0  0  0  0  0  0  0  0  0  0
   -3.8503   -0.0760   -0.4564 C   0  0  0  0  0  0  0  0  0  0  0  0
   -2.5604   -0.3498   -1.2332 C   0  0  0  0  0  0  0  0  0  0  0  0
   -1.3591   -0.4661   -0.2935 C   0  0  0  0  0  0  0  0  0  0  0  0
   -0.0697   -0.7392   -1.0699 C   0  0  0  0  0  0  0  0  0  0  0  0
    1.1322   -0.8562   -0.1296 C   0  0  0  0  0  0  0  0  0  0  0  0
    2.4209   -1.1251   -0.9098 C   0  0  0  0  0  0  0  0  0  0  0  0
    3.6389   -1.3714   -0.0132 C   0  0  0  0  0  0  0  0  0  0  0  0
    4.0684   -0.1345    0.7798 C   0  0  0  0  0  0  0  0  0  0  0  0
    5.2912   -0.3786    1.6709 C   0  0  0  0  0  0  0  0  0  0  0  0
    6.5773   -0.7875    0.9453 C   0  0  0  0  0  0  0  0  0  0  0  0
    7.0507    0.1639   -0.1575 C   0  0  0  0  0  0  0  0  0  0  0  0
    7.3546    1.5759    0.3472 C   0  0  0  0  0  0  0  0  0  0  0  0
    7.9210    2.4528   -0.7703 C   0  0  0  0  0  0  0  0  0  0  0  0
    8.2221    3.8590   -0.2766 C   0  0  0  0  0  0  0  0  0  0  0  0
  -10.8168   -0.8342    1.6632 H   0  0  0  0  0  0  0  0  0  0  0  0
   -9.9953   -0.0008    2.9975 H   0  0  0  0  0  0  0  0  0  0  0  0
  -10.4017   -1.7196    3.1409 H   0  0  0  0  0  0  0  0  0  0  0  0
   -8.8055   -2.2877    1.3392 H   0  0  0  0  0  0  0  0  0  0  0  0
   -7.9887   -1.4591    2.6663 H   0  0  0  0  0  0  0  0  0  0  0  0
   -8.9405   -0.1267    0.0731 H   0  0  0  0  0  0  0  0  0  0  0  0
   -8.1223    0.7020    1.3994 H   0  0  0  0  0  0  0  0  0  0  0  0
   -6.1327   -0.7838    1.0994 H   0  0  0  0  0  0  0  0  0  0  0  0
   -6.9419   -1.6064   -0.2371 H   0  0  0  0  0  0  0  0  0  0  0  0
   -7.1173    0.6014   -1.4503 H   0  0  0  0  0  0  0  0  0  0  0  0
   -6.2090    1.3712   -0.1538 H   0  0  0  0  0  0  0  0  0  0  0  0
   -5.1924   -0.9118   -1.9326 H   0  0  0  0  0  0  0  0  0  0  0  0
   -4.8390    0.7977   -2.1592 H   0  0  0  0  0  0  0  0  0  0  0  0
   -4.0121   -0.8853    0.2643 H   0  0  0  0  0  0  0  0  0  0  0  0
   -3.7438    0.8536    0.1156 H   0  0  0  0  0  0  0  0  0  0  0  0
   -2.6683   -1.2775   -1.8084 H   0  0  0  0  0  0  0  0  0  0  0  0
   -2.3859    0.4590   -1.9532 H   0  0  0  0  0  0  0  0  0  0  0  0
   -1.5326   -1.2752    0.4264 H   0  0  0  0  0  0  0  0  0  0  0  0
   -1.2520    0.4614    0.2821 H   0  0  0  0  0  0  0  0  0  0  0  0
   -0.1778   -1.6664   -1.6457 H   0  0  0  0  0  0  0  0  0  0  0  0
    0.1046    0.0701   -1.7893 H   0  0  0  0  0  0  0  0  0  0  0  0
    0.9596   -1.6682    0.5870 H   0  0  0  0  0  0  0  0  0  0  0  0
    1.2267    0.0714    0.4456 H   0  0  0  0  0  0  0  0  0  0  0  0
    2.6264   -0.2876   -1.5876 H   0  0  0  0  0  0  0  0  0  0  0  0
    2.2776   -2.0123   -1.5394 H   0  0  0  0  0  0  0  0  0  0  0  0
    3.4283   -2.1989    0.6749 H   0  0  0  0  0  0  0  0  0  0  0  0
    4.4625   -1.6970   -0.6584 H   0  0  0  0  0  0  0  0  0  0  0  0
    3.2478    0.1856    1.4319 H   0  0  0  0  0  0  0  0  0  0  0  0
    4.2612    0.6990    0.0951 H   0  0  0  0  0  0  0  0  0  0  0  0
    5.4806    0.5285    2.2572 H   0  0  0  0  0  0  0  0  0  0  0  0
    5.0458   -1.1603    2.4012 H   0  0  0  0  0  0  0  0  0  0  0  0
    6.4486   -1.7868    0.5129 H   0  0  0  0  0  0  0  0  0  0  0  0
    7.3751   -0.8870    1.6924 H   0  0  0  0  0  0  0  0  0  0  0  0
    7.9600   -0.2599   -0.6023 H   0  0  0  0  0  0  0  0  0  0  0  0
    6.3078    0.2075   -0.9621 H   0  0  0  0  0  0  0  0  0  0  0  0
    6.4426    2.0401    0.7387 H   0  0  0  0  0  0  0  0  0  0  0  0
    8.0738    1.5241    1.1735 H   0  0  0  0  0  0  0  0  0  0  0  0
    8.8410    2.0061   -1.1650 H   0  0  0  0  0  0  0  0  0  0  0  0
    7.2053    2.5080   -1.5989 H   0  0  0  0  0  0  0  0  0  0  0  0
    8.9592    3.8412    0.5325 H   0  0  0  0  0  0  0  0  0  0  0  0
    8.6262    4.4682   -1.0911 H   0  0  0  0  0  0  0  0  0  0  0  0
    7.3153    4.3469    0.0949 H   0  0  0  0  0  0  0  0  0  0  0  0
  1  2  1  0
  2  3  1  0
  3  4  1  0
  4  5  1  0
  5  6  1  0
  6  7  1  0
  7  8  1  0
  8  9  1  0
  9 10  1  0
 10 11  1  0
 11 12  1  0
 12 13  1  0
 13 14  1  0
 14 15  1  0
 15 16  1  0
 16 17  1  0
 17 18  1  0
 18 19  1  0
 19 20  1  0
  1 21  1  0
  1 22  1  0
  1 23  1  0
  2 24  1  0
  2 25  1  0
  3 26  1  0
  3 27  1  0
  4 28  1  0
  4 29  1  0
  5 30  1  0
  5 31  1  0
  6 32  1  0
  6 33  1  0
  7 34  1  0
  7 35  1  0
  8 36  1  0
  8 37  1  0
  9 38  1  0
  9 39  1  0
 10 40  1  0
 10 41  1  0
 11 42  1  0
 11 43  1  0
 12 44  1  0
 12 45  1  0
 13 46  1  0
 13 47  1  0
 14 48  1  0
 14 49  1  0
 15 50  1  0
 15 51  1  0
 16 52  1  0
 16 53  1  0
 17 54  1  0
 17 55  1  0
 18 56  1  0
 18 57  1  0
 19 58  1  0
 19 59  1  0
 20 60  1  0
 20 61  1  0
 20 62  1  0
M  END
>  <Energy>  (1) 
-4.567374872731955

>  <Real charge>  (1) 
0

>  <Mult>  (1) 
1

$$$$
mol_1098 159
     RDKit          3D

 62 61  0  0  0  0  0  0  0  0999 V2000
    9.8191   -1.2728    0.0956 C   0  0  0  0  0  0  0  0  0  0  0  0
    8.5484   -0.5399   -0.3071 C   0  0  0  0  0  0  0  0  0  0  0  0
    7.6628   -0.2527    0.9060 C   0  0  0  0  0  0  0  0  0  0  0  0
    6.4247    0.5841    0.5715 C   0  0  0  0  0  0  0  0  0  0  0  0
    5.4293   -0.1390   -0.3387 C   0  0  0  0  0  0  0  0  0  0  0  0
    4.1622    0.6953   -0.5473 C   0  0  0  0  0  0  0  0  0  0  0  0
    3.1667   -0.0279   -1.4571 C   0  0  0  0  0  0  0  0  0  0  0  0
    1.9288    0.8091   -1.7924 C   0  0  0  0  0  0  0  0  0  0  0  0
    1.0457    1.1036   -0.5769 C   0  0  0  0  0  0  0  0  0  0  0  0
   -0.2351    1.8330   -0.9903 C   0  0  0  0  0  0  0  0  0  0  0  0
   -1.1036    2.2610    0.1967 C   0  0  0  0  0  0  0  0  0  0  0  0
   -1.5905    1.1317    1.1100 C   0  0  0  0  0  0  0  0  0  0  0  0
   -2.4347    0.0816    0.3837 C   0  0  0  0  0  0  0  0  0  0  0  0
   -2.9941   -0.9511    1.3654 C   0  0  0  0  0  0  0  0  0  0  0  0
   -3.7463   -2.0973    0.6821 C   0  0  0  0  0  0  0  0  0  0  0  0
   -4.9540   -1.6911   -0.1680 C   0  0  0  0  0  0  0  0  0  0  0  0
   -6.0362   -0.9539    0.6233 C   0  0  0  0  0  0  0  0  0  0  0  0
   -7.2648   -0.6753   -0.2455 C   0  0  0  0  0  0  0  0  0  0  0  0
   -8.3455    0.0658    0.5413 C   0  0  0  0  0  0  0  0  0  0  0  0
   -9.5681    0.3444   -0.3184 C   0  0  0  0  0  0  0  0  0  0  0  0
   10.4369   -1.4722   -0.7856 H   0  0  0  0  0  0  0  0  0  0  0  0
   10.4111   -0.6763    0.7971 H   0  0  0  0  0  0  0  0  0  0  0  0
    9.5852   -2.2309    0.5707 H   0  0  0  0  0  0  0  0  0  0  0  0
    8.8176    0.3996   -0.8033 H   0  0  0  0  0  0  0  0  0  0  0  0
    8.0085   -1.1522   -1.0371 H   0  0  0  0  0  0  0  0  0  0  0  0
    7.3541   -1.1966    1.3715 H   0  0  0  0  0  0  0  0  0  0  0  0
    8.2497    0.2914    1.6565 H   0  0  0  0  0  0  0  0  0  0  0  0
    5.9248    0.8444    1.5129 H   0  0  0  0  0  0  0  0  0  0  0  0
    6.7334    1.5284    0.1069 H   0  0  0  0  0  0  0  0  0  0  0  0
    5.8893   -0.3408   -1.3124 H   0  0  0  0  0  0  0  0  0  0  0  0
    5.1623   -1.1066    0.1030 H   0  0  0  0  0  0  0  0  0  0  0  0
    3.7025    0.8971    0.4265 H   0  0  0  0  0  0  0  0  0  0  0  0
    4.4291    1.6629   -0.9892 H   0  0  0  0  0  0  0  0  0  0  0  0
    3.6663   -0.2895   -2.3982 H   0  0  0  0  0  0  0  0  0  0  0  0
    2.8574   -0.9716   -0.9916 H   0  0  0  0  0  0  0  0  0  0  0  0
    1.3391    0.2621   -2.5386 H   0  0  0  0  0  0  0  0  0  0  0  0
    2.2382    1.7503   -2.2628 H   0  0  0  0  0  0  0  0  0  0  0  0
    1.5924    1.7213    0.1440 H   0  0  0  0  0  0  0  0  0  0  0  0
    0.7960    0.1602   -0.0791 H   0  0  0  0  0  0  0  0  0  0  0  0
   -0.8174    1.2048   -1.6742 H   0  0  0  0  0  0  0  0  0  0  0  0
    0.0330    2.7345   -1.5556 H   0  0  0  0  0  0  0  0  0  0  0  0
   -1.9751    2.8034   -0.1909 H   0  0  0  0  0  0  0  0  0  0  0  0
   -0.5413    2.9797    0.8059 H   0  0  0  0  0  0  0  0  0  0  0  0
   -2.1900    1.5805    1.9122 H   0  0  0  0  0  0  0  0  0  0  0  0
   -0.7363    0.6498    1.5993 H   0  0  0  0  0  0  0  0  0  0  0  0
   -3.2551    0.5831   -0.1415 H   0  0  0  0  0  0  0  0  0  0  0  0
   -1.8275   -0.4330   -0.3692 H   0  0  0  0  0  0  0  0  0  0  0  0
   -3.6453   -0.4568    2.0953 H   0  0  0  0  0  0  0  0  0  0  0  0
   -2.1652   -1.3853    1.9388 H   0  0  0  0  0  0  0  0  0  0  0  0
   -3.0452   -2.6499    0.0442 H   0  0  0  0  0  0  0  0  0  0  0  0
   -4.0783   -2.8018    1.4550 H   0  0  0  0  0  0  0  0  0  0  0  0
   -4.6280   -1.0763   -1.0148 H   0  0  0  0  0  0  0  0  0  0  0  0
   -5.3850   -2.6032   -0.6000 H   0  0  0  0  0  0  0  0  0  0  0  0
   -5.6432   -0.0034    1.0013 H   0  0  0  0  0  0  0  0  0  0  0  0
   -6.3296   -1.5546    1.4926 H   0  0  0  0  0  0  0  0  0  0  0  0
   -7.6701   -1.6217   -0.6238 H   0  0  0  0  0  0  0  0  0  0  0  0
   -6.9702   -0.0784   -1.1173 H   0  0  0  0  0  0  0  0  0  0  0  0
   -8.6460   -0.5286    1.4120 H   0  0  0  0  0  0  0  0  0  0  0  0
   -7.9472    1.0150    0.9181 H   0  0  0  0  0  0  0  0  0  0  0  0
  -10.0104   -0.5873   -0.6853 H   0  0  0  0  0  0  0  0  0  0  0  0
  -10.3280    0.8749    0.2639 H   0  0  0  0  0  0  0  0  0  0  0  0
   -9.3074    0.9647   -1.1819 H   0  0  0  0  0  0  0  0  0  0  0  0
  1  2  1  0
  2  3  1  0
  3  4  1  0
  4  5  1  0
  5  6  1  0
  6  7  1  0
  7  8  1  0
  8  9  1  0
  9 10  1  0
 10 11  1  0
 11 12  1  0
 12 13  1  0
 13 14  1  0
 14 15  1  0
 15 16  1  0
 16 17  1  0
 17 18  1  0
 18 19  1  0
 19 20  1  0
  1 21  1  0
  1 22  1  0
  1 23  1  0
  2 24  1  0
  2 25  1  0
  3 26  1  0
  3 27  1  0
  4 28  1  0
  4 29  1  0
  5 30  1  0
  5 31  1  0
  6 32  1  0
  6 33  1  0
  7 34  1  0
  7 35  1  0
  8 36  1  0
  8 37  1  0
  9 38  1  0
  9 39  1  0
 10 40  1  0
 10 41  1  0
 11 42  1  0
 11 43  1  0
 12 44  1  0
 12 45  1  0
 13 46  1  0
 13 47  1  0
 14 48  1  0
 14 49  1  0
 15 50  1  0
 15 51  1  0
 16 52  1  0
 16 53  1  0
 17 54  1  0
 17 55  1  0
 18 56  1  0
 18 57  1  0
 19 58  1  0
 19 59  1  0
 20 60  1  0
 20 61  1  0
 20 62  1  0
M  END
>  <Energy>  (2) 
-3.9125545610130086

>  <Real charge>  (2) 
0

>  <Mult>  (2) 
1

$$$$
mol_1098 534
     RDKit          3D

 62 61  0  0  0  0  0  0  0  0999 V2000
  -11.0265    1.3584   -0.0042 C   0  0  0  0  0  0  0  0  0  0  0  0
   -9.5619    1.6173   -0.3194 C   0  0  0  0  0  0  0  0  0  0  0  0
   -8.7026    0.3843   -0.0409 C   0  0  0  0  0  0  0  0  0  0  0  0
   -7.2302    0.6489   -0.3592 C   0  0  0  0  0  0  0  0  0  0  0  0
   -6.3701   -0.5850   -0.0804 C   0  0  0  0  0  0  0  0  0  0  0  0
   -4.8967   -0.3204   -0.3994 C   0  0  0  0  0  0  0  0  0  0  0  0
   -4.0387   -1.5554   -0.1156 C   0  0  0  0  0  0  0  0  0  0  0  0
   -2.5725   -1.3903   -0.5300 C   0  0  0  0  0  0  0  0  0  0  0  0
   -1.8175   -0.3564    0.3097 C   0  0  0  0  0  0  0  0  0  0  0  0
   -0.3503   -0.1893   -0.1038 C   0  0  0  0  0  0  0  0  0  0  0  0
    0.5158   -1.4099    0.2191 C   0  0  0  0  0  0  0  0  0  0  0  0
    1.9818   -1.2409   -0.1944 C   0  0  0  0  0  0  0  0  0  0  0  0
    2.7268   -0.1779    0.6163 C   0  0  0  0  0  0  0  0  0  0  0  0
    4.2120   -0.1384    0.2450 C   0  0  0  0  0  0  0  0  0  0  0  0
    4.9575    0.9245    1.0553 C   0  0  0  0  0  0  0  0  0  0  0  0
    6.4253    1.0828    0.6455 C   0  0  0  0  0  0  0  0  0  0  0  0
    7.2711   -0.1606    0.9329 C   0  0  0  0  0  0  0  0  0  0  0  0
    8.7728    0.0704    0.7359 C   0  0  0  0  0  0  0  0  0  0  0  0
    9.1562    0.3643   -0.7150 C   0  0  0  0  0  0  0  0  0  0  0  0
   10.6644    0.4760   -0.8781 C   0  0  0  0  0  0  0  0  0  0  0  0
  -11.4204    0.5395   -0.6147 H   0  0  0  0  0  0  0  0  0  0  0  0
  -11.6225    2.2529   -0.2105 H   0  0  0  0  0  0  0  0  0  0  0  0
  -11.1606    1.0965    1.0502 H   0  0  0  0  0  0  0  0  0  0  0  0
   -9.4665    1.9078   -1.3721 H   0  0  0  0  0  0  0  0  0  0  0  0
   -9.2082    2.4617    0.2836 H   0  0  0  0  0  0  0  0  0  0  0  0
   -9.0632   -0.4584   -0.6434 H   0  0  0  0  0  0  0  0  0  0  0  0
   -8.8048    0.0955    1.0123 H   0  0  0  0  0  0  0  0  0  0  0  0
   -6.8699    1.4916    0.2434 H   0  0  0  0  0  0  0  0  0  0  0  0
   -7.1280    0.9375   -1.4124 H   0  0  0  0  0  0  0  0  0  0  0  0
   -6.7313   -1.4274   -0.6828 H   0  0  0  0  0  0  0  0  0  0  0  0
   -6.4714   -0.8734    0.9729 H   0  0  0  0  0  0  0  0  0  0  0  0
   -4.5483    0.5267    0.2015 H   0  0  0  0  0  0  0  0  0  0  0  0
   -4.7951   -0.0361   -1.4537 H   0  0  0  0  0  0  0  0  0  0  0  0
   -4.4527   -2.4102   -0.6650 H   0  0  0  0  0  0  0  0  0  0  0  0
   -4.0938   -1.8090    0.9500 H   0  0  0  0  0  0  0  0  0  0  0  0
   -2.5188   -1.1180   -1.5909 H   0  0  0  0  0  0  0  0  0  0  0  0
   -2.0899   -2.3686   -0.4292 H   0  0  0  0  0  0  0  0  0  0  0  0
   -2.3016    0.6210    0.2053 H   0  0  0  0  0  0  0  0  0  0  0  0
   -1.8726   -0.6261    1.3712 H   0  0  0  0  0  0  0  0  0  0  0  0
   -0.2929    0.0355   -1.1756 H   0  0  0  0  0  0  0  0  0  0  0  0
    0.0426    0.6861    0.4253 H   0  0  0  0  0  0  0  0  0  0  0  0
    0.1246   -2.2875   -0.3070 H   0  0  0  0  0  0  0  0  0  0  0  0
    0.4597   -1.6320    1.2916 H   0  0  0  0  0  0  0  0  0  0  0  0
    2.4853   -2.2068   -0.0626 H   0  0  0  0  0  0  0  0  0  0  0  0
    2.0375   -0.9996   -1.2629 H   0  0  0  0  0  0  0  0  0  0  0  0
    2.2874    0.8093    0.4361 H   0  0  0  0  0  0  0  0  0  0  0  0
    2.6224   -0.3912    1.6870 H   0  0  0  0  0  0  0  0  0  0  0  0
    4.3166    0.0744   -0.8257 H   0  0  0  0  0  0  0  0  0  0  0  0
    4.6528   -1.1252    0.4258 H   0  0  0  0  0  0  0  0  0  0  0  0
    4.4594    1.8928    0.9206 H   0  0  0  0  0  0  0  0  0  0  0  0
    4.8976    0.6854    2.1240 H   0  0  0  0  0  0  0  0  0  0  0  0
    6.4740    1.3351   -0.4199 H   0  0  0  0  0  0  0  0  0  0  0  0
    6.8429    1.9359    1.1942 H   0  0  0  0  0  0  0  0  0  0  0  0
    7.1071   -0.4744    1.9711 H   0  0  0  0  0  0  0  0  0  0  0  0
    6.9504   -0.9918    0.2948 H   0  0  0  0  0  0  0  0  0  0  0  0
    9.3037   -0.8292    1.0717 H   0  0  0  0  0  0  0  0  0  0  0  0
    9.1066    0.8920    1.3813 H   0  0  0  0  0  0  0  0  0  0  0  0
    8.7823   -0.4324   -1.3684 H   0  0  0  0  0  0  0  0  0  0  0  0
    8.6980    1.3018   -1.0476 H   0  0  0  0  0  0  0  0  0  0  0  0
   11.1605   -0.4572   -0.5928 H   0  0  0  0  0  0  0  0  0  0  0  0
   10.9179    0.6897   -1.9212 H   0  0  0  0  0  0  0  0  0  0  0  0
   11.0670    1.2833   -0.2580 H   0  0  0  0  0  0  0  0  0  0  0  0
  1  2  1  0
  2  3  1  0
  3  4  1  0
  4  5  1  0
  5  6  1  0
  6  7  1  0
  7  8  1  0
  8  9  1  0
  9 10  1  0
 10 11  1  0
 11 12  1  0
 12 13  1  0
 13 14  1  0
 14 15  1  0
 15 16  1  0
 16 17  1  0
 17 18  1  0
 18 19  1  0
 19 20  1  0
  1 21  1  0
  1 22  1  0
  1 23  1  0
  2 24  1  0
  2 25  1  0
  3 26  1  0
  3 27  1  0
  4 28  1  0
  4 29  1  0
  5 30  1  0
  5 31  1  0
  6 32  1  0
  6 33  1  0
  7 34  1  0
  7 35  1  0
  8 36  1  0
  8 37  1  0
  9 38  1  0
  9 39  1  0
 10 40  1  0
 10 41  1  0
 11 42  1  0
 11 43  1  0
 12 44  1  0
 12 45  1  0
 13 46  1  0
 13 47  1  0
 14 48  1  0
 14 49  1  0
 15 50  1  0
 15 51  1  0
 16 52  1  0
 16 53  1  0
 17 54  1  0
 17 55  1  0
 18 56  1  0
 18 57  1  0
 19 58  1  0
 19 59  1  0
 20 60  1  0
 20 61  1  0
 20 62  1  0
M  END
>  <Energy>  (3) 
-3.8053921714310577

>  <Real charge>  (3) 
0

>  <Mult>  (3) 
1

$$$$
mol_1098 902
     RDKit          3D

 62 61  0  0  0  0  0  0  0  0999 V2000
    6.6891    4.1719    0.3218 C   0  0  0  0  0  0  0  0  0  0  0  0
    7.2635    2.7708    0.4584 C   0  0  0  0  0  0  0  0  0  0  0  0
    6.3847    1.7341   -0.2430 C   0  0  0  0  0  0  0  0  0  0  0  0
    6.9666    0.3262   -0.0978 C   0  0  0  0  0  0  0  0  0  0  0  0
    6.1905   -0.7379   -0.8795 C   0  0  0  0  0  0  0  0  0  0  0  0
    4.7708   -0.9660   -0.3530 C   0  0  0  0  0  0  0  0  0  0  0  0
    4.0843   -2.1142   -1.0980 C   0  0  0  0  0  0  0  0  0  0  0  0
    2.7023   -2.4678   -0.5377 C   0  0  0  0  0  0  0  0  0  0  0  0
    1.6600   -1.3670   -0.7531 C   0  0  0  0  0  0  0  0  0  0  0  0
    0.2763   -1.7200   -0.1945 C   0  0  0  0  0  0  0  0  0  0  0  0
   -0.4252   -2.8393   -0.9688 C   0  0  0  0  0  0  0  0  0  0  0  0
   -1.8074   -3.1922   -0.4084 C   0  0  0  0  0  0  0  0  0  0  0  0
   -2.8413   -2.0763   -0.5833 C   0  0  0  0  0  0  0  0  0  0  0  0
   -4.2264   -2.5295   -0.1134 C   0  0  0  0  0  0  0  0  0  0  0  0
   -5.3249   -1.4927   -0.3661 C   0  0  0  0  0  0  0  0  0  0  0  0
   -5.1551   -0.2128    0.4553 C   0  0  0  0  0  0  0  0  0  0  0  0
   -6.3390    0.7359    0.2534 C   0  0  0  0  0  0  0  0  0  0  0  0
   -6.1699    2.0183    1.0699 C   0  0  0  0  0  0  0  0  0  0  0  0
   -7.3525    2.9655    0.8685 C   0  0  0  0  0  0  0  0  0  0  0  0
   -7.1882    4.2417    1.6784 C   0  0  0  0  0  0  0  0  0  0  0  0
    7.3331    4.8967    0.8296 H   0  0  0  0  0  0  0  0  0  0  0  0
    6.6130    4.4637   -0.7305 H   0  0  0  0  0  0  0  0  0  0  0  0
    5.6915    4.2323    0.7685 H   0  0  0  0  0  0  0  0  0  0  0  0
    7.3558    2.5219    1.5221 H   0  0  0  0  0  0  0  0  0  0  0  0
    8.2732    2.7536    0.0320 H   0  0  0  0  0  0  0  0  0  0  0  0
    5.3772    1.7709    0.1861 H   0  0  0  0  0  0  0  0  0  0  0  0
    6.2955    1.9877   -1.3062 H   0  0  0  0  0  0  0  0  0  0  0  0
    7.0049    0.0485    0.9626 H   0  0  0  0  0  0  0  0  0  0  0  0
    8.0019    0.3280   -0.4609 H   0  0  0  0  0  0  0  0  0  0  0  0
    6.7503   -1.6796   -0.8196 H   0  0  0  0  0  0  0  0  0  0  0  0
    6.1520   -0.4606   -1.9400 H   0  0  0  0  0  0  0  0  0  0  0  0
    4.1854   -0.0494   -0.4730 H   0  0  0  0  0  0  0  0  0  0  0  0
    4.8088   -1.1941    0.7188 H   0  0  0  0  0  0  0  0  0  0  0  0
    3.9978   -1.8665   -2.1630 H   0  0  0  0  0  0  0  0  0  0  0  0
    4.7156   -3.0093   -1.0325 H   0  0  0  0  0  0  0  0  0  0  0  0
    2.7864   -2.6955    0.5317 H   0  0  0  0  0  0  0  0  0  0  0  0
    2.3723   -3.3878   -1.0325 H   0  0  0  0  0  0  0  0  0  0  0  0
    1.9912   -0.4494   -0.2542 H   0  0  0  0  0  0  0  0  0  0  0  0
    1.5779   -1.1353   -1.8218 H   0  0  0  0  0  0  0  0  0  0  0  0
   -0.3352   -0.8116   -0.2338 H   0  0  0  0  0  0  0  0  0  0  0  0
    0.3654   -1.9972    0.8627 H   0  0  0  0  0  0  0  0  0  0  0  0
    0.1855   -3.7482   -0.9345 H   0  0  0  0  0  0  0  0  0  0  0  0
   -0.5175   -2.5589   -2.0250 H   0  0  0  0  0  0  0  0  0  0  0  0
   -2.1632   -4.0920   -0.9258 H   0  0  0  0  0  0  0  0  0  0  0  0
   -1.7188   -3.4531    0.6533 H   0  0  0  0  0  0  0  0  0  0  0  0
   -2.5315   -1.1967   -0.0111 H   0  0  0  0  0  0  0  0  0  0  0  0
   -2.8895   -1.7822   -1.6385 H   0  0  0  0  0  0  0  0  0  0  0  0
   -4.5004   -3.4509   -0.6422 H   0  0  0  0  0  0  0  0  0  0  0  0
   -4.1925   -2.7769    0.9546 H   0  0  0  0  0  0  0  0  0  0  0  0
   -6.2901   -1.9515   -0.1178 H   0  0  0  0  0  0  0  0  0  0  0  0
   -5.3588   -1.2458   -1.4343 H   0  0  0  0  0  0  0  0  0  0  0  0
   -5.0658   -0.4669    1.5184 H   0  0  0  0  0  0  0  0  0  0  0  0
   -4.2321    0.3010    0.1645 H   0  0  0  0  0  0  0  0  0  0  0  0
   -7.2678    0.2329    0.5486 H   0  0  0  0  0  0  0  0  0  0  0  0
   -6.4308    0.9869   -0.8104 H   0  0  0  0  0  0  0  0  0  0  0  0
   -6.0773    1.7671    2.1336 H   0  0  0  0  0  0  0  0  0  0  0  0
   -5.2414    2.5222    0.7749 H   0  0  0  0  0  0  0  0  0  0  0  0
   -7.4470    3.2230   -0.1928 H   0  0  0  0  0  0  0  0  0  0  0  0
   -8.2830    2.4682    1.1660 H   0  0  0  0  0  0  0  0  0  0  0  0
   -7.1230    4.0214    2.7488 H   0  0  0  0  0  0  0  0  0  0  0  0
   -6.2824    4.7804    1.3824 H   0  0  0  0  0  0  0  0  0  0  0  0
   -8.0447    4.9043    1.5196 H   0  0  0  0  0  0  0  0  0  0  0  0
  1  2  1  0
  2  3  1  0
  3  4  1  0
  4  5  1  0
  5  6  1  0
  6  7  1  0
  7  8  1  0
  8  9  1  0
  9 10  1  0
 10 11  1  0
 11 12  1  0
 12 13  1  0
 13 14  1  0
 14 15  1  0
 15 16  1  0
 16 17  1  0
 17 18  1  0
 18 19  1  0
 19 20  1  0
  1 21  1  0
  1 22  1  0
  1 23  1  0
  2 24  1  0
  2 25  1  0
  3 26  1  0
  3 27  1  0
  4 28  1  0
  4 29  1  0
  5 30  1  0
  5 31  1  0
  6 32  1  0
  6 33  1  0
  7 34  1  0
  7 35  1  0
  8 36  1  0
  8 37  1  0
  9 38  1  0
  9 39  1  0
 10 40  1  0
 10 41  1  0
 11 42  1  0
 11 43  1  0
 12 44  1  0
 12 45  1  0
 13 46  1  0
 13 47  1  0
 14 48  1  0
 14 49  1  0
 15 50  1  0
 15 51  1  0
 16 52  1  0
 16 53  1  0
 17 54  1  0
 17 55  1  0
 18 56  1  0
 18 57  1  0
 19 58  1  0
 19 59  1  0
 20 60  1  0
 20 61  1  0
 20 62  1  0
M  END
>  <Energy>  (4) 
-3.7444274749994055

>  <Real charge>  (4) 
0

>  <Mult>  (4) 
1

$$$$
mol_1098 508
     RDKit          3D

 62 61  0  0  0  0  0  0  0  0999 V2000
   -7.3171    2.8801    0.5410 C   0  0  0  0  0  0  0  0  0  0  0  0
   -6.7584    1.9712    1.6248 C   0  0  0  0  0  0  0  0  0  0  0  0
   -6.9673    0.4821    1.3413 C   0  0  0  0  0  0  0  0  0  0  0  0
   -6.1983   -0.0153    0.1144 C   0  0  0  0  0  0  0  0  0  0  0  0
   -6.3498   -1.5292   -0.0548 C   0  0  0  0  0  0  0  0  0  0  0  0
   -5.7005   -2.0686   -1.3333 C   0  0  0  0  0  0  0  0  0  0  0  0
   -4.1945   -1.8206   -1.4713 C   0  0  0  0  0  0  0  0  0  0  0  0
   -3.3731   -2.4363   -0.3361 C   0  0  0  0  0  0  0  0  0  0  0  0
   -1.8615   -2.3671   -0.5760 C   0  0  0  0  0  0  0  0  0  0  0  0
   -1.3146   -0.9377   -0.5879 C   0  0  0  0  0  0  0  0  0  0  0  0
    0.2114   -0.9291   -0.7149 C   0  0  0  0  0  0  0  0  0  0  0  0
    0.7577    0.5003   -0.7266 C   0  0  0  0  0  0  0  0  0  0  0  0
    2.2685    0.5730   -0.9660 C   0  0  0  0  0  0  0  0  0  0  0  0
    3.0946   -0.0348    0.1698 C   0  0  0  0  0  0  0  0  0  0  0  0
    4.5942    0.1679   -0.0659 C   0  0  0  0  0  0  0  0  0  0  0  0
    5.4203   -0.4399    1.0699 C   0  0  0  0  0  0  0  0  0  0  0  0
    6.9312   -0.3670    0.8306 C   0  0  0  0  0  0  0  0  0  0  0  0
    7.4774    1.0624    0.8191 C   0  0  0  0  0  0  0  0  0  0  0  0
    9.0016    1.0711    0.6935 C   0  0  0  0  0  0  0  0  0  0  0  0
    9.5512    2.4887    0.6776 C   0  0  0  0  0  0  0  0  0  0  0  0
   -8.3764    2.6717    0.3605 H   0  0  0  0  0  0  0  0  0  0  0  0
   -6.7747    2.7614   -0.4014 H   0  0  0  0  0  0  0  0  0  0  0  0
   -7.2253    3.9277    0.8456 H   0  0  0  0  0  0  0  0  0  0  0  0
   -5.6907    2.1792    1.7605 H   0  0  0  0  0  0  0  0  0  0  0  0
   -7.2516    2.2163    2.5730 H   0  0  0  0  0  0  0  0  0  0  0  0
   -6.6401   -0.0833    2.2227 H   0  0  0  0  0  0  0  0  0  0  0  0
   -8.0377    0.2789    1.2150 H   0  0  0  0  0  0  0  0  0  0  0  0
   -6.5668    0.4851   -0.7879 H   0  0  0  0  0  0  0  0  0  0  0  0
   -5.1400    0.2456    0.2260 H   0  0  0  0  0  0  0  0  0  0  0  0
   -7.4175   -1.7810   -0.0856 H   0  0  0  0  0  0  0  0  0  0  0  0
   -5.9387   -2.0446    0.8209 H   0  0  0  0  0  0  0  0  0  0  0  0
   -5.8886   -3.1481   -1.3879 H   0  0  0  0  0  0  0  0  0  0  0  0
   -6.2047   -1.6252   -2.2011 H   0  0  0  0  0  0  0  0  0  0  0  0
   -3.8663   -2.2509   -2.4258 H   0  0  0  0  0  0  0  0  0  0  0  0
   -4.0061   -0.7440   -1.5376 H   0  0  0  0  0  0  0  0  0  0  0  0
   -3.6070   -1.9406    0.6129 H   0  0  0  0  0  0  0  0  0  0  0  0
   -3.6536   -3.4907   -0.2222 H   0  0  0  0  0  0  0  0  0  0  0  0
   -1.3636   -2.9346    0.2201 H   0  0  0  0  0  0  0  0  0  0  0  0
   -1.6150   -2.8666   -1.5207 H   0  0  0  0  0  0  0  0  0  0  0  0
   -1.7467   -0.3778   -1.4248 H   0  0  0  0  0  0  0  0  0  0  0  0
   -1.6086   -0.4233    0.3350 H   0  0  0  0  0  0  0  0  0  0  0  0
    0.6431   -1.4892    0.1219 H   0  0  0  0  0  0  0  0  0  0  0  0
    0.5052   -1.4432   -1.6380 H   0  0  0  0  0  0  0  0  0  0  0  0
    0.5106    0.9992    0.2184 H   0  0  0  0  0  0  0  0  0  0  0  0
    0.2589    1.0675   -1.5224 H   0  0  0  0  0  0  0  0  0  0  0  0
    2.5444    1.6283   -1.0840 H   0  0  0  0  0  0  0  0  0  0  0  0
    2.5155    0.0750   -1.9115 H   0  0  0  0  0  0  0  0  0  0  0  0
    2.8873   -1.1074    0.2524 H   0  0  0  0  0  0  0  0  0  0  0  0
    2.8076    0.4274    1.1220 H   0  0  0  0  0  0  0  0  0  0  0  0
    4.8016    1.2406   -0.1485 H   0  0  0  0  0  0  0  0  0  0  0  0
    4.8812   -0.2943   -1.0181 H   0  0  0  0  0  0  0  0  0  0  0  0
    5.1446   -1.4953    1.1877 H   0  0  0  0  0  0  0  0  0  0  0  0
    5.1732    0.0580    2.0154 H   0  0  0  0  0  0  0  0  0  0  0  0
    7.1783   -0.8659   -0.1144 H   0  0  0  0  0  0  0  0  0  0  0  0
    7.4300   -0.9341    1.6265 H   0  0  0  0  0  0  0  0  0  0  0  0
    7.1824    1.5766    1.7417 H   0  0  0  0  0  0  0  0  0  0  0  0
    7.0466    1.6230   -0.0180 H   0  0  0  0  0  0  0  0  0  0  0  0
    9.3020    0.5584   -0.2277 H   0  0  0  0  0  0  0  0  0  0  0  0
    9.4480    0.5225    1.5310 H   0  0  0  0  0  0  0  0  0  0  0  0
    9.2946    3.0193    1.6000 H   0  0  0  0  0  0  0  0  0  0  0  0
   10.6419    2.4713    0.5878 H   0  0  0  0  0  0  0  0  0  0  0  0
    9.1497    3.0557   -0.1684 H   0  0  0  0  0  0  0  0  0  0  0  0
  1  2  1  0
  2  3  1  0
  3  4  1  0
  4  5  1  0
  5  6  1  0
  6  7  1  0
  7  8  1  0
  8  9  1  0
  9 10  1  0
 10 11  1  0
 11 12  1  0
 12 13  1  0
 13 14  1  0
 14 15  1  0
 15 16  1  0
 16 17  1  0
 17 18  1  0
 18 19  1  0
 19 20  1  0
  1 21  1  0
  1 22  1  0
  1 23  1  0
  2 24  1  0
  2 25  1  0
  3 26  1  0
  3 27  1  0
  4 28  1  0
  4 29  1  0
  5 30  1  0
  5 31  1  0
  6 32  1  0
  6 33  1  0
  7 34  1  0
  7 35  1  0
  8 36  1  0
  8 37  1  0
  9 38  1  0
  9 39  1  0
 10 40  1  0
 10 41  1  0
 11 42  1  0
 11 43  1  0
 12 44  1  0
 12 45  1  0
 13 46  1  0
 13 47  1  0
 14 48  1  0
 14 49  1  0
 15 50  1  0
 15 51  1  0
 16 52  1  0
 16 53  1  0
 17 54  1  0
 17 55  1  0
 18 56  1  0
 18 57  1  0
 19 58  1  0
 19 59  1  0
 20 60  1  0
 20 61  1  0
 20 62  1  0
M  END
>  <Energy>  (5) 
-3.725240945419967

>  <Real charge>  (5) 
0

>  <Mult>  (5) 
1

$$$$
mol_1098 801
     RDKit          3D

 62 61  0  0  0  0  0  0  0  0999 V2000
   -8.4644    2.2333    0.9078 C   0  0  0  0  0  0  0  0  0  0  0  0
   -7.3819    1.2469    1.3163 C   0  0  0  0  0  0  0  0  0  0  0  0
   -5.9965    1.7239    0.8812 C   0  0  0  0  0  0  0  0  0  0  0  0
   -4.9105    0.7288    1.2939 C   0  0  0  0  0  0  0  0  0  0  0  0
   -3.5232    1.2066    0.8587 C   0  0  0  0  0  0  0  0  0  0  0  0
   -2.4396    0.2071    1.2692 C   0  0  0  0  0  0  0  0  0  0  0  0
   -1.0191    0.6880    0.9598 C   0  0  0  0  0  0  0  0  0  0  0  0
   -0.7344    0.8217   -0.5387 C   0  0  0  0  0  0  0  0  0  0  0  0
    0.7316    1.1831   -0.7879 C   0  0  0  0  0  0  0  0  0  0  0  0
    1.0610    1.4194   -2.2645 C   0  0  0  0  0  0  0  0  0  0  0  0
    0.8077    0.2360   -3.2047 C   0  0  0  0  0  0  0  0  0  0  0  0
    1.4989   -1.0785   -2.8269 C   0  0  0  0  0  0  0  0  0  0  0  0
    3.0214   -0.9575   -2.7337 C   0  0  0  0  0  0  0  0  0  0  0  0
    3.7313   -2.3051   -2.5650 C   0  0  0  0  0  0  0  0  0  0  0  0
    3.3198   -3.1310   -1.3414 C   0  0  0  0  0  0  0  0  0  0  0  0
    3.4115   -2.4145    0.0093 C   0  0  0  0  0  0  0  0  0  0  0  0
    4.8196   -1.9169    0.3418 C   0  0  0  0  0  0  0  0  0  0  0  0
    4.9323   -1.3265    1.7512 C   0  0  0  0  0  0  0  0  0  0  0  0
    4.1164   -0.0459    1.9382 C   0  0  0  0  0  0  0  0  0  0  0  0
    4.3566    0.5698    3.3081 C   0  0  0  0  0  0  0  0  0  0  0  0
   -8.2958    3.2129    1.3664 H   0  0  0  0  0  0  0  0  0  0  0  0
   -9.4466    1.8725    1.2287 H   0  0  0  0  0  0  0  0  0  0  0  0
   -8.4881    2.3618   -0.1791 H   0  0  0  0  0  0  0  0  0  0  0  0
   -7.5976    0.2702    0.8676 H   0  0  0  0  0  0  0  0  0  0  0  0
   -7.4063    1.1166    2.4045 H   0  0  0  0  0  0  0  0  0  0  0  0
   -5.7874    2.7029    1.3294 H   0  0  0  0  0  0  0  0  0  0  0  0
   -5.9789    1.8566   -0.2074 H   0  0  0  0  0  0  0  0  0  0  0  0
   -5.1191   -0.2500    0.8451 H   0  0  0  0  0  0  0  0  0  0  0  0
   -4.9291    0.5963    2.3825 H   0  0  0  0  0  0  0  0  0  0  0  0
   -3.5168    1.3424   -0.2285 H   0  0  0  0  0  0  0  0  0  0  0  0
   -3.3130    2.1834    1.3107 H   0  0  0  0  0  0  0  0  0  0  0  0
   -2.5105    0.0255    2.3489 H   0  0  0  0  0  0  0  0  0  0  0  0
   -2.6174   -0.7559    0.7753 H   0  0  0  0  0  0  0  0  0  0  0  0
   -0.8393    1.6481    1.4585 H   0  0  0  0  0  0  0  0  0  0  0  0
   -0.3133   -0.0307    1.3950 H   0  0  0  0  0  0  0  0  0  0  0  0
   -0.9787   -0.1237   -1.0354 H   0  0  0  0  0  0  0  0  0  0  0  0
   -1.3732    1.5969   -0.9758 H   0  0  0  0  0  0  0  0  0  0  0  0
    0.9723    2.1004   -0.2358 H   0  0  0  0  0  0  0  0  0  0  0  0
    1.3808    0.4018   -0.3791 H   0  0  0  0  0  0  0  0  0  0  0  0
    2.1117    1.7239   -2.3418 H   0  0  0  0  0  0  0  0  0  0  0  0
    0.4749    2.2745   -2.6247 H   0  0  0  0  0  0  0  0  0  0  0  0
    1.1295    0.5262   -4.2130 H   0  0  0  0  0  0  0  0  0  0  0  0
   -0.2713    0.0541   -3.2770 H   0  0  0  0  0  0  0  0  0  0  0  0
    1.0883   -1.4479   -1.8814 H   0  0  0  0  0  0  0  0  0  0  0  0
    1.2442   -1.8268   -3.5878 H   0  0  0  0  0  0  0  0  0  0  0  0
    3.4008   -0.4869   -3.6494 H   0  0  0  0  0  0  0  0  0  0  0  0
    3.2989   -0.2933   -1.9084 H   0  0  0  0  0  0  0  0  0  0  0  0
    4.8129   -2.1264   -2.5337 H   0  0  0  0  0  0  0  0  0  0  0  0
    3.5549   -2.9120   -3.4623 H   0  0  0  0  0  0  0  0  0  0  0  0
    3.9463   -4.0314   -1.3085 H   0  0  0  0  0  0  0  0  0  0  0  0
    2.2912   -3.4871   -1.4762 H   0  0  0  0  0  0  0  0  0  0  0  0
    3.0863   -3.1148    0.7888 H   0  0  0  0  0  0  0  0  0  0  0  0
    2.7007   -1.5835    0.0278 H   0  0  0  0  0  0  0  0  0  0  0  0
    5.5229   -2.7549    0.2618 H   0  0  0  0  0  0  0  0  0  0  0  0
    5.1400   -1.1633   -0.3862 H   0  0  0  0  0  0  0  0  0  0  0  0
    5.9899   -1.1093    1.9466 H   0  0  0  0  0  0  0  0  0  0  0  0
    4.6225   -2.0751    2.4906 H   0  0  0  0  0  0  0  0  0  0  0  0
    3.0466   -0.2561    1.8335 H   0  0  0  0  0  0  0  0  0  0  0  0
    4.3832    0.6832    1.1645 H   0  0  0  0  0  0  0  0  0  0  0  0
    5.4106    0.8341    3.4405 H   0  0  0  0  0  0  0  0  0  0  0  0
    3.7612    1.4809    3.4234 H   0  0  0  0  0  0  0  0  0  0  0  0
    4.0731   -0.1248    4.1052 H   0  0  0  0  0  0  0  0  0  0  0  0
  1  2  1  0
  2  3  1  0
  3  4  1  0
  4  5  1  0
  5  6  1  0
  6  7  1  0
  7  8  1  0
  8  9  1  0
  9 10  1  0
 10 11  1  0
 11 12  1  0
 12 13  1  0
 13 14  1  0
 14 15  1  0
 15 16  1  0
 16 17  1  0
 17 18  1  0
 18 19  1  0
 19 20  1  0
  1 21  1  0
  1 22  1  0
  1 23  1  0
  2 24  1  0
  2 25  1  0
  3 26  1  0
  3 27  1  0
  4 28  1  0
  4 29  1  0
  5 30  1  0
  5 31  1  0
  6 32  1  0
  6 33  1  0
  7 34  1  0
  7 35  1  0
  8 36  1  0
  8 37  1  0
  9 38  1  0
  9 39  1  0
 10 40  1  0
 10 41  1  0
 11 42  1  0
 11 43  1  0
 12 44  1  0
 12 45  1  0
 13 46  1  0
 13 47  1  0
 14 48  1  0
 14 49  1  0
 15 50  1  0
 15 51  1  0
 16 52  1  0
 16 53  1  0
 17 54  1  0
 17 55  1  0
 18 56  1  0
 18 57  1  0
 19 58  1  0
 19 59  1  0
 20 60  1  0
 20 61  1  0
 20 62  1  0
M  END
>  <Energy>  (6) 
-3.6526969590169096

>  <Real charge>  (6) 
0

>  <Mult>  (6) 
1

$$$$
