mol_1122 8
     RDKit          3D

 14 14  0  0  0  0  0  0  0  0999 V2000
    0.4746    1.8661    2.7154 N   0  0  0  0  0  0  0  0  0  0  0  0
    0.2669    1.2865    1.7324 C   0  0  0  0  0  0  0  0  0  0  0  0
   -0.0147    0.5833    0.5136 C   0  0  0  0  0  0  0  0  0  0  0  0
   -1.2147    0.8568   -0.1603 C   0  0  0  0  0  0  0  0  0  0  0  0
   -1.5244    0.1932   -1.3488 C   0  0  0  0  0  0  0  0  0  0  0  0
   -0.6398   -0.7468   -1.8725 C   0  0  0  0  0  0  0  0  0  0  0  0
    0.5563   -1.0252   -1.2088 C   0  0  0  0  0  0  0  0  0  0  0  0
    0.8759   -0.3630   -0.0136 C   0  0  0  0  0  0  0  0  0  0  0  0
    2.1150   -0.6773    0.6382 C   0  0  0  0  0  0  0  0  0  0  0  0
    3.1213   -0.9464    1.1484 N   0  0  0  0  0  0  0  0  0  0  0  0
   -1.9164    1.5894    0.2373 H   0  0  0  0  0  0  0  0  0  0  0  0
   -2.4569    0.4101   -1.8663 H   0  0  0  0  0  0  0  0  0  0  0  0
   -0.8815   -1.2639   -2.7991 H   0  0  0  0  0  0  0  0  0  0  0  0
    1.2384   -1.7628   -1.6305 H   0  0  0  0  0  0  0  0  0  0  0  0
  1  2  3  0
  2  3  1  0
  3  4  2  0
  4  5  1  0
  5  6  2  0
  6  7  1  0
  7  8  2  0
  8  9  1  0
  9 10  3  0
  8  3  1  0
  4 11  1  0
  5 12  1  0
  6 13  1  0
  7 14  1  0
M  END
>  <Energy>  (1) 
27.419745552543738

>  <Real charge>  (1) 
0

>  <Mult>  (1) 
1

$$$$
