mol_446 5
     RDKit          3D

 12 12  0  0  0  0  0  0  0  0999 V2000
   -3.3257   -0.0649   -0.0453 Br  0  0  0  0  0  0  0  0  0  0  0  0
   -1.4164   -0.0277   -0.0193 C   0  0  0  0  0  0  0  0  0  0  0  0
   -0.7393    1.1974   -0.0239 C   0  0  0  0  0  0  0  0  0  0  0  0
    0.6591    1.2246   -0.0048 C   0  0  0  0  0  0  0  0  0  0  0  0
    1.3830    0.0270    0.0188 C   0  0  0  0  0  0  0  0  0  0  0  0
    3.4914    0.0682    0.0475 I   0  0  0  0  0  0  0  0  0  0  0  0
    0.7060   -1.1979    0.0234 C   0  0  0  0  0  0  0  0  0  0  0  0
   -0.6924   -1.2253    0.0044 C   0  0  0  0  0  0  0  0  0  0  0  0
   -1.2946    2.1263   -0.0421 H   0  0  0  0  0  0  0  0  0  0  0  0
    1.1784    2.1741   -0.0085 H   0  0  0  0  0  0  0  0  0  0  0  0
    1.2617   -2.1265    0.0417 H   0  0  0  0  0  0  0  0  0  0  0  0
   -1.2113   -2.1752    0.0080 H   0  0  0  0  0  0  0  0  0  0  0  0
  1  2  1  0
  2  3  2  0
  3  4  1  0
  4  5  2  0
  5  6  1  0
  5  7  1  0
  7  8  2  0
  8  2  1  0
  3  9  1  0
  4 10  1  0
  7 11  1  0
  8 12  1  0
M  END
>  <Energy>  (1) 
10.193535256708788

>  <Real charge>  (1) 
0

>  <Mult>  (1) 
1

$$$$
