mol_188 18
     RDKit          3D

 12 12  0  0  0  0  0  0  0  0999 V2000
    3.0303   -0.8728   -0.0266 Cl  0  0  0  0  0  0  0  0  0  0  0  0
    1.3781   -0.3969   -0.0121 C   0  0  0  0  0  0  0  0  0  0  0  0
    1.0494    0.9545    0.0257 C   0  0  0  0  0  0  0  0  0  0  0  0
   -0.2943    1.3422    0.0375 C   0  0  0  0  0  0  0  0  0  0  0  0
   -0.6212    3.0410    0.0850 Cl  0  0  0  0  0  0  0  0  0  0  0  0
   -1.3151    0.3787    0.0116 C   0  0  0  0  0  0  0  0  0  0  0  0
   -2.9821    0.8589    0.0262 Cl  0  0  0  0  0  0  0  0  0  0  0  0
   -0.9637   -0.9799   -0.0265 C   0  0  0  0  0  0  0  0  0  0  0  0
   -2.1448   -2.2444   -0.0607 Cl  0  0  0  0  0  0  0  0  0  0  0  0
    0.3804   -1.3663   -0.0383 C   0  0  0  0  0  0  0  0  0  0  0  0
    1.8362    1.7054    0.0460 H   0  0  0  0  0  0  0  0  0  0  0  0
    0.6468   -2.4205   -0.0678 H   0  0  0  0  0  0  0  0  0  0  0  0
  1  2  1  0
  2  3  2  0
  3  4  1  0
  4  5  1  0
  4  6  2  0
  6  7  1  0
  6  8  1  0
  8  9  1  0
  8 10  2  0
 10  2  1  0
  3 11  1  0
 10 12  1  0
M  END
>  <Energy>  (1) 
12.047384933140691

>  <Real charge>  (1) 
0

>  <Mult>  (1) 
1

$$$$
