mol_72 92
     RDKit          3D

 25 26  0  0  0  0  0  0  0  0999 V2000
   -5.4240   -0.8710    1.4894 Cl  0  0  0  0  0  0  0  0  0  0  0  0
   -3.9882   -0.4915    0.6209 C   0  0  0  0  0  0  0  0  0  0  0  0
   -3.1164    0.4768    1.1199 C   0  0  0  0  0  0  0  0  0  0  0  0
   -1.9501    0.7880    0.4188 C   0  0  0  0  0  0  0  0  0  0  0  0
   -1.6543    0.1155   -0.7727 C   0  0  0  0  0  0  0  0  0  0  0  0
   -0.5293    0.4402   -1.4979 O   0  0  0  0  0  0  0  0  0  0  0  0
    0.6839    0.3168   -0.8582 C   0  0  0  0  0  0  0  0  0  0  0  0
    1.6140    1.3351   -1.0809 C   0  0  0  0  0  0  0  0  0  0  0  0
    2.8799    1.2688   -0.4939 C   0  0  0  0  0  0  0  0  0  0  0  0
    3.2117    0.1661    0.3054 C   0  0  0  0  0  0  0  0  0  0  0  0
    2.2885   -0.8687    0.5128 C   0  0  0  0  0  0  0  0  0  0  0  0
    1.0243   -0.7936   -0.0785 C   0  0  0  0  0  0  0  0  0  0  0  0
    4.5409    0.0905    0.9254 N   0  0  0  0  0  4  0  0  0  0  0  0
    4.7949   -0.9003    1.6250 O   0  0  0  0  0  1  0  0  0  0  0  0
    5.3286    1.0238    0.7156 O   0  0  0  0  0  0  0  0  0  0  0  0
   -2.5450   -0.8395   -1.2772 C   0  0  0  0  0  0  0  0  0  0  0  0
   -2.2257   -1.6693   -2.7561 Cl  0  0  0  0  0  0  0  0  0  0  0  0
   -3.7108   -1.1501   -0.5758 C   0  0  0  0  0  0  0  0  0  0  0  0
   -3.3429    0.9960    2.0481 H   0  0  0  0  0  0  0  0  0  0  0  0
   -1.2825    1.5568    0.7996 H   0  0  0  0  0  0  0  0  0  0  0  0
    1.3515    2.1817   -1.7114 H   0  0  0  0  0  0  0  0  0  0  0  0
    3.5901    2.0737   -0.6726 H   0  0  0  0  0  0  0  0  0  0  0  0
    2.5386   -1.7371    1.1193 H   0  0  0  0  0  0  0  0  0  0  0  0
    0.3217   -1.6108    0.0641 H   0  0  0  0  0  0  0  0  0  0  0  0
   -4.3994   -1.8975   -0.9607 H   0  0  0  0  0  0  0  0  0  0  0  0
  1  2  1  0
  2  3  2  0
  3  4  1  0
  4  5  2  0
  5  6  1  0
  6  7  1  0
  7  8  2  0
  8  9  1  0
  9 10  2  0
 10 11  1  0
 11 12  2  0
 10 13  1  0
 13 14  1  0
 13 15  2  0
  5 16  1  0
 16 17  1  0
 16 18  2  0
 12  7  1  0
 18  2  1  0
  3 19  1  0
  4 20  1  0
  8 21  1  0
  9 22  1  0
 11 23  1  0
 12 24  1  0
 18 25  1  0
M  CHG  2  13   1  14  -1
M  END
>  <Energy>  (1) 
74.83128202227154

>  <Real charge>  (1) 
0

>  <Mult>  (1) 
1

$$$$
mol_72 140
     RDKit          3D

 25 26  0  0  0  0  0  0  0  0999 V2000
   -5.2761    1.0403    2.0119 Cl  0  0  0  0  0  0  0  0  0  0  0  0
   -3.9307    0.5982    1.0348 C   0  0  0  0  0  0  0  0  0  0  0  0
   -3.6244   -0.7509    0.8538 C   0  0  0  0  0  0  0  0  0  0  0  0
   -2.5340   -1.1131    0.0623 C   0  0  0  0  0  0  0  0  0  0  0  0
   -1.7449   -0.1216   -0.5284 C   0  0  0  0  0  0  0  0  0  0  0  0
   -0.7047   -0.5358   -1.3249 O   0  0  0  0  0  0  0  0  0  0  0  0
    0.5748   -0.4156   -0.8237 C   0  0  0  0  0  0  0  0  0  0  0  0
    1.5896   -0.3658   -1.7855 C   0  0  0  0  0  0  0  0  0  0  0  0
    2.9277   -0.2565   -1.3991 C   0  0  0  0  0  0  0  0  0  0  0  0
    3.2472   -0.2065   -0.0367 C   0  0  0  0  0  0  0  0  0  0  0  0
    2.2380   -0.2698    0.9338 C   0  0  0  0  0  0  0  0  0  0  0  0
    0.9011   -0.3791    0.5365 C   0  0  0  0  0  0  0  0  0  0  0  0
    4.6510   -0.0927    0.3789 N   0  0  0  0  0  4  0  0  0  0  0  0
    5.5136   -0.0454   -0.5096 O   0  0  0  0  0  1  0  0  0  0  0  0
    4.8905   -0.0531    1.5942 O   0  0  0  0  0  0  0  0  0  0  0  0
   -2.0729    1.2306   -0.3667 C   0  0  0  0  0  0  0  0  0  0  0  0
   -1.1732    2.4840   -1.1398 Cl  0  0  0  0  0  0  0  0  0  0  0  0
   -3.1641    1.5910    0.4258 C   0  0  0  0  0  0  0  0  0  0  0  0
   -4.2330   -1.5218    1.3204 H   0  0  0  0  0  0  0  0  0  0  0  0
   -2.2965   -2.1629   -0.0917 H   0  0  0  0  0  0  0  0  0  0  0  0
    1.3346   -0.4032   -2.8427 H   0  0  0  0  0  0  0  0  0  0  0  0
    3.6989   -0.2113   -2.1653 H   0  0  0  0  0  0  0  0  0  0  0  0
    2.4730   -0.2381    1.9960 H   0  0  0  0  0  0  0  0  0  0  0  0
    0.1353   -0.4393    1.3048 H   0  0  0  0  0  0  0  0  0  0  0  0
   -3.4208    2.6384    0.5609 H   0  0  0  0  0  0  0  0  0  0  0  0
  1  2  1  0
  2  3  2  0
  3  4  1  0
  4  5  2  0
  5  6  1  0
  6  7  1  0
  7  8  2  0
  8  9  1  0
  9 10  2  0
 10 11  1  0
 11 12  2  0
 10 13  1  0
 13 14  1  0
 13 15  2  0
  5 16  1  0
 16 17  1  0
 16 18  2  0
 12  7  1  0
 18  2  1  0
  3 19  1  0
  4 20  1  0
  8 21  1  0
  9 22  1  0
 11 23  1  0
 12 24  1  0
 18 25  1  0
M  CHG  2  13   1  14  -1
M  END
>  <Energy>  (2) 
75.18479418168981

>  <Real charge>  (2) 
0

>  <Mult>  (2) 
1

$$$$
