mol_868 632
     RDKit          3D

 66 66  0  0  0  0  0  0  0  0999 V2000
    0.1651    5.1203    0.5393 C   0  0  0  0  0  0  0  0  0  0  0  0
    0.1862    3.6100    0.3673 C   0  0  0  0  0  0  0  0  0  0  0  0
   -1.1644    2.9855    0.7254 C   0  0  0  0  0  0  0  0  0  0  0  0
   -1.1250    1.4642    0.5558 C   0  0  0  0  0  0  0  0  0  0  0  0
   -2.4893    0.7628    0.7695 C   0  0  0  0  0  0  0  0  0  0  0  0
   -2.9973    0.9462    2.2141 C   0  0  0  0  0  0  0  0  0  0  0  0
   -4.3573    0.3142    2.4797 C   0  0  0  0  0  0  0  0  0  0  0  0
   -2.3653   -0.7272    0.3926 C   0  0  0  0  0  0  0  0  0  0  0  0
   -2.0115   -0.8276   -0.9969 O   0  0  0  0  0  0  0  0  0  0  0  0
   -1.4228   -1.9908   -1.3659 C   0  0  0  0  0  0  0  0  0  0  0  0
   -1.1537   -2.9377   -0.6487 O   0  0  0  0  0  0  0  0  0  0  0  0
   -1.1646   -1.9501   -2.8203 C   0  0  0  0  0  0  0  0  0  0  0  0
   -2.1755   -1.4850   -3.6792 C   0  0  0  0  0  0  0  0  0  0  0  0
   -1.9987   -1.5234   -5.0638 C   0  0  0  0  0  0  0  0  0  0  0  0
   -0.8204   -2.0366   -5.6020 C   0  0  0  0  0  0  0  0  0  0  0  0
    0.1884   -2.4998   -4.7561 C   0  0  0  0  0  0  0  0  0  0  0  0
    0.0258   -2.4465   -3.3624 C   0  0  0  0  0  0  0  0  0  0  0  0
    1.1661   -2.9023   -2.5446 C   0  0  0  0  0  0  0  0  0  0  0  0
    1.8150   -3.9039   -2.7969 O   0  0  0  0  0  0  0  0  0  0  0  0
    1.4473   -1.9653   -1.6075 O   0  0  0  0  0  0  0  0  0  0  0  0
    2.6285   -2.2440   -0.8439 C   0  0  0  0  0  0  0  0  0  0  0  0
    2.8117   -1.1790    0.2550 C   0  0  0  0  0  0  0  0  0  0  0  0
    2.7912    0.2614   -0.3012 C   0  0  0  0  0  0  0  0  0  0  0  0
    3.8163    0.5116   -1.3991 C   0  0  0  0  0  0  0  0  0  0  0  0
    1.7286   -1.3779    1.3394 C   0  0  0  0  0  0  0  0  0  0  0  0
    1.9293   -0.5121    2.5868 C   0  0  0  0  0  0  0  0  0  0  0  0
    0.9033   -0.8591    3.6671 C   0  0  0  0  0  0  0  0  0  0  0  0
    1.0571    0.0323    4.8888 C   0  0  0  0  0  0  0  0  0  0  0  0
   -0.5905    5.5781   -0.1071 H   0  0  0  0  0  0  0  0  0  0  0  0
   -0.0572    5.3942    1.5756 H   0  0  0  0  0  0  0  0  0  0  0  0
    1.1391    5.5452    0.2772 H   0  0  0  0  0  0  0  0  0  0  0  0
    0.4448    3.3705   -0.6707 H   0  0  0  0  0  0  0  0  0  0  0  0
    0.9723    3.1860    1.0032 H   0  0  0  0  0  0  0  0  0  0  0  0
   -1.4101    3.2464    1.7602 H   0  0  0  0  0  0  0  0  0  0  0  0
   -1.9471    3.4081    0.0844 H   0  0  0  0  0  0  0  0  0  0  0  0
   -0.3889    1.0461    1.2519 H   0  0  0  0  0  0  0  0  0  0  0  0
   -0.7589    1.2454   -0.4548 H   0  0  0  0  0  0  0  0  0  0  0  0
   -3.2080    1.2265    0.0803 H   0  0  0  0  0  0  0  0  0  0  0  0
   -3.0899    2.0144    2.4371 H   0  0  0  0  0  0  0  0  0  0  0  0
   -2.2684    0.5371    2.9236 H   0  0  0  0  0  0  0  0  0  0  0  0
   -4.7186    0.6083    3.4707 H   0  0  0  0  0  0  0  0  0  0  0  0
   -4.3048   -0.7781    2.4645 H   0  0  0  0  0  0  0  0  0  0  0  0
   -5.0948    0.6407    1.7399 H   0  0  0  0  0  0  0  0  0  0  0  0
   -1.6198   -1.2150    1.0308 H   0  0  0  0  0  0  0  0  0  0  0  0
   -3.3237   -1.2411    0.5121 H   0  0  0  0  0  0  0  0  0  0  0  0
   -3.1130   -1.1084   -3.2746 H   0  0  0  0  0  0  0  0  0  0  0  0
   -2.7866   -1.1653   -5.7229 H   0  0  0  0  0  0  0  0  0  0  0  0
   -0.6858   -2.0769   -6.6808 H   0  0  0  0  0  0  0  0  0  0  0  0
    1.1083   -2.8963   -5.1836 H   0  0  0  0  0  0  0  0  0  0  0  0
    3.4964   -2.2445   -1.5138 H   0  0  0  0  0  0  0  0  0  0  0  0
    2.5501   -3.2399   -0.3899 H   0  0  0  0  0  0  0  0  0  0  0  0
    3.7900   -1.3567    0.7210 H   0  0  0  0  0  0  0  0  0  0  0  0
    1.7930    0.5096   -0.6810 H   0  0  0  0  0  0  0  0  0  0  0  0
    3.0024    0.9684    0.5087 H   0  0  0  0  0  0  0  0  0  0  0  0
    3.5763   -0.0460   -2.3091 H   0  0  0  0  0  0  0  0  0  0  0  0
    3.8319    1.5746   -1.6609 H   0  0  0  0  0  0  0  0  0  0  0  0
    4.8212    0.2289   -1.0704 H   0  0  0  0  0  0  0  0  0  0  0  0
    0.7405   -1.1749    0.9131 H   0  0  0  0  0  0  0  0  0  0  0  0
    1.7259   -2.4317    1.6470 H   0  0  0  0  0  0  0  0  0  0  0  0
    2.9415   -0.6609    2.9812 H   0  0  0  0  0  0  0  0  0  0  0  0
    1.8310    0.5484    2.3319 H   0  0  0  0  0  0  0  0  0  0  0  0
   -0.1110   -0.7485    3.2677 H   0  0  0  0  0  0  0  0  0  0  0  0
    1.0200   -1.9065    3.9685 H   0  0  0  0  0  0  0  0  0  0  0  0
    2.0530   -0.0752    5.3302 H   0  0  0  0  0  0  0  0  0  0  0  0
    0.3171   -0.2359    5.6492 H   0  0  0  0  0  0  0  0  0  0  0  0
    0.9084    1.0849    4.6270 H   0  0  0  0  0  0  0  0  0  0  0  0
  1  2  1  0
  2  3  1  0
  3  4  1  0
  4  5  1  0
  5  6  1  0
  6  7  1  0
  5  8  1  0
  8  9  1  0
  9 10  1  0
 10 11  2  0
 10 12  1  0
 12 13  2  0
 13 14  1  0
 14 15  2  0
 15 16  1  0
 16 17  2  0
 17 18  1  0
 18 19  2  0
 18 20  1  0
 20 21  1  0
 21 22  1  0
 22 23  1  0
 23 24  1  0
 22 25  1  0
 25 26  1  0
 26 27  1  0
 27 28  1  0
 17 12  1  0
  1 29  1  0
  1 30  1  0
  1 31  1  0
  2 32  1  0
  2 33  1  0
  3 34  1  0
  3 35  1  0
  4 36  1  0
  4 37  1  0
  5 38  1  0
  6 39  1  0
  6 40  1  0
  7 41  1  0
  7 42  1  0
  7 43  1  0
  8 44  1  0
  8 45  1  0
 13 46  1  0
 14 47  1  0
 15 48  1  0
 16 49  1  0
 21 50  1  0
 21 51  1  0
 22 52  1  0
 23 53  1  0
 23 54  1  0
 24 55  1  0
 24 56  1  0
 24 57  1  0
 25 58  1  0
 25 59  1  0
 26 60  1  0
 26 61  1  0
 27 62  1  0
 27 63  1  0
 28 64  1  0
 28 65  1  0
 28 66  1  0
M  END
>  <Energy>  (1) 
26.81110005969332

>  <Real charge>  (1) 
0

>  <Mult>  (1) 
1

$$$$
mol_868 504
     RDKit          3D

 66 66  0  0  0  0  0  0  0  0999 V2000
   -6.7234   -1.0186   -0.9753 C   0  0  0  0  0  0  0  0  0  0  0  0
   -5.3823   -1.4985   -0.4435 C   0  0  0  0  0  0  0  0  0  0  0  0
   -4.5669   -0.3447    0.1440 C   0  0  0  0  0  0  0  0  0  0  0  0
   -3.2178   -0.8390    0.6748 C   0  0  0  0  0  0  0  0  0  0  0  0
   -2.3173    0.2560    1.2918 C   0  0  0  0  0  0  0  0  0  0  0  0
   -2.9275    0.9626    2.5174 C   0  0  0  0  0  0  0  0  0  0  0  0
   -3.3036    0.0174    3.6490 C   0  0  0  0  0  0  0  0  0  0  0  0
   -1.8775    1.3113    0.2608 C   0  0  0  0  0  0  0  0  0  0  0  0
   -1.2593    0.6542   -0.8530 O   0  0  0  0  0  0  0  0  0  0  0  0
   -0.6256    1.4799   -1.7176 C   0  0  0  0  0  0  0  0  0  0  0  0
   -0.5620    2.6959   -1.6511 O   0  0  0  0  0  0  0  0  0  0  0  0
   -0.1082    0.6939   -2.8568 C   0  0  0  0  0  0  0  0  0  0  0  0
   -0.2883    1.2387   -4.1378 C   0  0  0  0  0  0  0  0  0  0  0  0
    0.1094    0.5247   -5.2700 C   0  0  0  0  0  0  0  0  0  0  0  0
    0.6877   -0.7362   -5.1325 C   0  0  0  0  0  0  0  0  0  0  0  0
    0.8882   -1.2772   -3.8616 C   0  0  0  0  0  0  0  0  0  0  0  0
    0.5091   -0.5559   -2.7191 C   0  0  0  0  0  0  0  0  0  0  0  0
    0.8231   -1.1645   -1.4131 C   0  0  0  0  0  0  0  0  0  0  0  0
    0.6118   -2.3341   -1.1419 O   0  0  0  0  0  0  0  0  0  0  0  0
    1.4687   -0.2532   -0.6470 O   0  0  0  0  0  0  0  0  0  0  0  0
    1.9010   -0.7550    0.6240 C   0  0  0  0  0  0  0  0  0  0  0  0
    2.6892    0.3345    1.3757 C   0  0  0  0  0  0  0  0  0  0  0  0
    1.7347    1.4894    1.7571 C   0  0  0  0  0  0  0  0  0  0  0  0
    2.3523    2.5116    2.7013 C   0  0  0  0  0  0  0  0  0  0  0  0
    3.8950    0.8622    0.5643 C   0  0  0  0  0  0  0  0  0  0  0  0
    4.8780   -0.1988    0.0536 C   0  0  0  0  0  0  0  0  0  0  0  0
    5.5292   -1.0117    1.1728 C   0  0  0  0  0  0  0  0  0  0  0  0
    6.5702   -1.9753    0.6238 C   0  0  0  0  0  0  0  0  0  0  0  0
   -6.5880   -0.2758   -1.7679 H   0  0  0  0  0  0  0  0  0  0  0  0
   -7.2892   -1.8587   -1.3901 H   0  0  0  0  0  0  0  0  0  0  0  0
   -7.3222   -0.5660   -0.1785 H   0  0  0  0  0  0  0  0  0  0  0  0
   -4.8224   -1.9738   -1.2573 H   0  0  0  0  0  0  0  0  0  0  0  0
   -5.5526   -2.2628    0.3237 H   0  0  0  0  0  0  0  0  0  0  0  0
   -4.4118    0.4136   -0.6312 H   0  0  0  0  0  0  0  0  0  0  0  0
   -5.1407    0.1245    0.9505 H   0  0  0  0  0  0  0  0  0  0  0  0
   -2.6737   -1.3312   -0.1416 H   0  0  0  0  0  0  0  0  0  0  0  0
   -3.3907   -1.6245    1.4205 H   0  0  0  0  0  0  0  0  0  0  0  0
   -1.4070   -0.2628    1.6239 H   0  0  0  0  0  0  0  0  0  0  0  0
   -3.8082    1.5464    2.2261 H   0  0  0  0  0  0  0  0  0  0  0  0
   -2.1973    1.6829    2.9081 H   0  0  0  0  0  0  0  0  0  0  0  0
   -4.1376   -0.6329    3.3696 H   0  0  0  0  0  0  0  0  0  0  0  0
   -2.4537   -0.6091    3.9372 H   0  0  0  0  0  0  0  0  0  0  0  0
   -3.6146    0.5910    4.5282 H   0  0  0  0  0  0  0  0  0  0  0  0
   -1.1616    1.9988    0.7271 H   0  0  0  0  0  0  0  0  0  0  0  0
   -2.7343    1.8928   -0.0978 H   0  0  0  0  0  0  0  0  0  0  0  0
   -0.7531    2.2165   -4.2560 H   0  0  0  0  0  0  0  0  0  0  0  0
   -0.0402    0.9499   -6.2602 H   0  0  0  0  0  0  0  0  0  0  0  0
    0.9898   -1.2957   -6.0152 H   0  0  0  0  0  0  0  0  0  0  0  0
    1.3529   -2.2568   -3.7607 H   0  0  0  0  0  0  0  0  0  0  0  0
    2.5271   -1.6425    0.4775 H   0  0  0  0  0  0  0  0  0  0  0  0
    1.0235   -1.0534    1.2104 H   0  0  0  0  0  0  0  0  0  0  0  0
    3.0579   -0.1112    2.3081 H   0  0  0  0  0  0  0  0  0  0  0  0
    0.8480    1.0722    2.2502 H   0  0  0  0  0  0  0  0  0  0  0  0
    1.3829    2.0052    0.8559 H   0  0  0  0  0  0  0  0  0  0  0  0
    2.7625    2.0269    3.5927 H   0  0  0  0  0  0  0  0  0  0  0  0
    1.5904    3.2278    3.0261 H   0  0  0  0  0  0  0  0  0  0  0  0
    3.1498    3.0802    2.2151 H   0  0  0  0  0  0  0  0  0  0  0  0
    4.4625    1.5707    1.1793 H   0  0  0  0  0  0  0  0  0  0  0  0
    3.5311    1.4326   -0.3000 H   0  0  0  0  0  0  0  0  0  0  0  0
    5.6629    0.3159   -0.5153 H   0  0  0  0  0  0  0  0  0  0  0  0
    4.3796   -0.8684   -0.6565 H   0  0  0  0  0  0  0  0  0  0  0  0
    6.0076   -0.3376    1.8927 H   0  0  0  0  0  0  0  0  0  0  0  0
    4.7733   -1.5870    1.7175 H   0  0  0  0  0  0  0  0  0  0  0  0
    7.0230   -2.5485    1.4389 H   0  0  0  0  0  0  0  0  0  0  0  0
    6.1177   -2.6824   -0.0787 H   0  0  0  0  0  0  0  0  0  0  0  0
    7.3686   -1.4365    0.1035 H   0  0  0  0  0  0  0  0  0  0  0  0
  1  2  1  0
  2  3  1  0
  3  4  1  0
  4  5  1  0
  5  6  1  0
  6  7  1  0
  5  8  1  0
  8  9  1  0
  9 10  1  0
 10 11  2  0
 10 12  1  0
 12 13  2  0
 13 14  1  0
 14 15  2  0
 15 16  1  0
 16 17  2  0
 17 18  1  0
 18 19  2  0
 18 20  1  0
 20 21  1  0
 21 22  1  0
 22 23  1  0
 23 24  1  0
 22 25  1  0
 25 26  1  0
 26 27  1  0
 27 28  1  0
 17 12  1  0
  1 29  1  0
  1 30  1  0
  1 31  1  0
  2 32  1  0
  2 33  1  0
  3 34  1  0
  3 35  1  0
  4 36  1  0
  4 37  1  0
  5 38  1  0
  6 39  1  0
  6 40  1  0
  7 41  1  0
  7 42  1  0
  7 43  1  0
  8 44  1  0
  8 45  1  0
 13 46  1  0
 14 47  1  0
 15 48  1  0
 16 49  1  0
 21 50  1  0
 21 51  1  0
 22 52  1  0
 23 53  1  0
 23 54  1  0
 24 55  1  0
 24 56  1  0
 24 57  1  0
 25 58  1  0
 25 59  1  0
 26 60  1  0
 26 61  1  0
 27 62  1  0
 27 63  1  0
 28 64  1  0
 28 65  1  0
 28 66  1  0
M  END
>  <Energy>  (2) 
27.235067666431114

>  <Real charge>  (2) 
0

>  <Mult>  (2) 
1

$$$$
mol_868 831
     RDKit          3D

 66 66  0  0  0  0  0  0  0  0999 V2000
   -6.1439   -2.1909   -1.7660 C   0  0  0  0  0  0  0  0  0  0  0  0
   -5.4252   -1.3502   -0.7228 C   0  0  0  0  0  0  0  0  0  0  0  0
   -4.1621   -0.7057   -1.2958 C   0  0  0  0  0  0  0  0  0  0  0  0
   -3.4462    0.1435   -0.2410 C   0  0  0  0  0  0  0  0  0  0  0  0
   -2.0910    0.7113   -0.7194 C   0  0  0  0  0  0  0  0  0  0  0  0
   -2.1779    1.5751   -1.9931 C   0  0  0  0  0  0  0  0  0  0  0  0
   -3.0830    2.7945   -1.8875 C   0  0  0  0  0  0  0  0  0  0  0  0
   -1.3960    1.4791    0.4202 C   0  0  0  0  0  0  0  0  0  0  0  0
   -1.1079    0.5635    1.4877 O   0  0  0  0  0  0  0  0  0  0  0  0
   -0.2572    1.0418    2.4257 C   0  0  0  0  0  0  0  0  0  0  0  0
    0.2142    2.1653    2.4791 O   0  0  0  0  0  0  0  0  0  0  0  0
   -0.0560    0.0201    3.4734 C   0  0  0  0  0  0  0  0  0  0  0  0
   -0.1147    0.4610    4.8050 C   0  0  0  0  0  0  0  0  0  0  0  0
    0.0016   -0.4511    5.8554 C   0  0  0  0  0  0  0  0  0  0  0  0
    0.1767   -1.8071    5.5850 C   0  0  0  0  0  0  0  0  0  0  0  0
    0.2559   -2.2511    4.2638 C   0  0  0  0  0  0  0  0  0  0  0  0
    0.1599   -1.3377    3.2020 C   0  0  0  0  0  0  0  0  0  0  0  0
    0.3235   -1.8835    1.8392 C   0  0  0  0  0  0  0  0  0  0  0  0
   -0.1528   -2.9458    1.4759 O   0  0  0  0  0  0  0  0  0  0  0  0
    1.1486   -1.0798    1.1281 O   0  0  0  0  0  0  0  0  0  0  0  0
    1.3991   -1.5194   -0.2153 C   0  0  0  0  0  0  0  0  0  0  0  0
    2.0642   -0.3721   -0.9980 C   0  0  0  0  0  0  0  0  0  0  0  0
    2.1077   -0.6867   -2.5064 C   0  0  0  0  0  0  0  0  0  0  0  0
    3.0082   -1.8495   -2.8992 C   0  0  0  0  0  0  0  0  0  0  0  0
    3.4365   -0.0208   -0.3806 C   0  0  0  0  0  0  0  0  0  0  0  0
    4.1256    1.1696   -1.0547 C   0  0  0  0  0  0  0  0  0  0  0  0
    5.4092    1.5554   -0.3179 C   0  0  0  0  0  0  0  0  0  0  0  0
    6.1013    2.7336   -0.9845 C   0  0  0  0  0  0  0  0  0  0  0  0
   -5.5001   -2.9974   -2.1312 H   0  0  0  0  0  0  0  0  0  0  0  0
   -7.0429   -2.6426   -1.3351 H   0  0  0  0  0  0  0  0  0  0  0  0
   -6.4477   -1.5792   -2.6215 H   0  0  0  0  0  0  0  0  0  0  0  0
   -5.1652   -1.9848    0.1324 H   0  0  0  0  0  0  0  0  0  0  0  0
   -6.1057   -0.5731   -0.3556 H   0  0  0  0  0  0  0  0  0  0  0  0
   -3.4847   -1.4873   -1.6602 H   0  0  0  0  0  0  0  0  0  0  0  0
   -4.4385   -0.0855   -2.1555 H   0  0  0  0  0  0  0  0  0  0  0  0
   -4.1042    0.9591    0.0823 H   0  0  0  0  0  0  0  0  0  0  0  0
   -3.2763   -0.4814    0.6452 H   0  0  0  0  0  0  0  0  0  0  0  0
   -1.4568   -0.1531   -0.9600 H   0  0  0  0  0  0  0  0  0  0  0  0
   -1.1688    1.9138   -2.2608 H   0  0  0  0  0  0  0  0  0  0  0  0
   -2.5139    0.9578   -2.8343 H   0  0  0  0  0  0  0  0  0  0  0  0
   -4.1209    2.5104   -1.6926 H   0  0  0  0  0  0  0  0  0  0  0  0
   -2.7532    3.4732   -1.0958 H   0  0  0  0  0  0  0  0  0  0  0  0
   -3.0655    3.3524   -2.8296 H   0  0  0  0  0  0  0  0  0  0  0  0
   -0.4622    1.9205    0.0517 H   0  0  0  0  0  0  0  0  0  0  0  0
   -2.0421    2.2740    0.8090 H   0  0  0  0  0  0  0  0  0  0  0  0
   -0.2647    1.5169    5.0253 H   0  0  0  0  0  0  0  0  0  0  0  0
   -0.0522   -0.1037    6.8849 H   0  0  0  0  0  0  0  0  0  0  0  0
    0.2593   -2.5193    6.4033 H   0  0  0  0  0  0  0  0  0  0  0  0
    0.4062   -3.3106    4.0619 H   0  0  0  0  0  0  0  0  0  0  0  0
    2.0517   -2.3987   -0.1772 H   0  0  0  0  0  0  0  0  0  0  0  0
    0.4520   -1.7932   -0.6957 H   0  0  0  0  0  0  0  0  0  0  0  0
    1.4283    0.5151   -0.8730 H   0  0  0  0  0  0  0  0  0  0  0  0
    2.4220    0.2058   -3.0596 H   0  0  0  0  0  0  0  0  0  0  0  0
    1.0891   -0.9042   -2.8523 H   0  0  0  0  0  0  0  0  0  0  0  0
    2.6983   -2.7800   -2.4152 H   0  0  0  0  0  0  0  0  0  0  0  0
    2.9591   -2.0077   -3.9817 H   0  0  0  0  0  0  0  0  0  0  0  0
    4.0532   -1.6547   -2.6422 H   0  0  0  0  0  0  0  0  0  0  0  0
    4.0990   -0.8943   -0.4113 H   0  0  0  0  0  0  0  0  0  0  0  0
    3.2970    0.2195    0.6812 H   0  0  0  0  0  0  0  0  0  0  0  0
    4.3724    0.9241   -2.0934 H   0  0  0  0  0  0  0  0  0  0  0  0
    3.4423    2.0271   -1.0743 H   0  0  0  0  0  0  0  0  0  0  0  0
    5.1787    1.8160    0.7217 H   0  0  0  0  0  0  0  0  0  0  0  0
    6.0957    0.7010   -0.2941 H   0  0  0  0  0  0  0  0  0  0  0  0
    7.0155    2.9929   -0.4414 H   0  0  0  0  0  0  0  0  0  0  0  0
    5.4517    3.6146   -0.9964 H   0  0  0  0  0  0  0  0  0  0  0  0
    6.3757    2.4946   -2.0169 H   0  0  0  0  0  0  0  0  0  0  0  0
  1  2  1  0
  2  3  1  0
  3  4  1  0
  4  5  1  0
  5  6  1  0
  6  7  1  0
  5  8  1  0
  8  9  1  0
  9 10  1  0
 10 11  2  0
 10 12  1  0
 12 13  2  0
 13 14  1  0
 14 15  2  0
 15 16  1  0
 16 17  2  0
 17 18  1  0
 18 19  2  0
 18 20  1  0
 20 21  1  0
 21 22  1  0
 22 23  1  0
 23 24  1  0
 22 25  1  0
 25 26  1  0
 26 27  1  0
 27 28  1  0
 17 12  1  0
  1 29  1  0
  1 30  1  0
  1 31  1  0
  2 32  1  0
  2 33  1  0
  3 34  1  0
  3 35  1  0
  4 36  1  0
  4 37  1  0
  5 38  1  0
  6 39  1  0
  6 40  1  0
  7 41  1  0
  7 42  1  0
  7 43  1  0
  8 44  1  0
  8 45  1  0
 13 46  1  0
 14 47  1  0
 15 48  1  0
 16 49  1  0
 21 50  1  0
 21 51  1  0
 22 52  1  0
 23 53  1  0
 23 54  1  0
 24 55  1  0
 24 56  1  0
 24 57  1  0
 25 58  1  0
 25 59  1  0
 26 60  1  0
 26 61  1  0
 27 62  1  0
 27 63  1  0
 28 64  1  0
 28 65  1  0
 28 66  1  0
M  END
>  <Energy>  (3) 
27.315520758385713

>  <Real charge>  (3) 
0

>  <Mult>  (3) 
1

$$$$
mol_868 777
     RDKit          3D

 66 66  0  0  0  0  0  0  0  0999 V2000
   -2.5473    4.7667   -1.7882 C   0  0  0  0  0  0  0  0  0  0  0  0
   -3.4783    3.6870   -1.2591 C   0  0  0  0  0  0  0  0  0  0  0  0
   -2.6933    2.5151   -0.6672 C   0  0  0  0  0  0  0  0  0  0  0  0
   -3.6346    1.4274   -0.1378 C   0  0  0  0  0  0  0  0  0  0  0  0
   -2.9314    0.2060    0.4929 C   0  0  0  0  0  0  0  0  0  0  0  0
   -2.0267    0.5492    1.6962 C   0  0  0  0  0  0  0  0  0  0  0  0
   -2.7467    1.2899    2.8145 C   0  0  0  0  0  0  0  0  0  0  0  0
   -2.1596   -0.5937   -0.5736 C   0  0  0  0  0  0  0  0  0  0  0  0
   -1.6213   -1.7840    0.0174 O   0  0  0  0  0  0  0  0  0  0  0  0
   -0.9677   -2.5897   -0.8531 C   0  0  0  0  0  0  0  0  0  0  0  0
   -0.8512   -2.4356   -2.0562 O   0  0  0  0  0  0  0  0  0  0  0  0
   -0.4979   -3.7808   -0.1255 C   0  0  0  0  0  0  0  0  0  0  0  0
   -0.8495   -5.0335   -0.6484 C   0  0  0  0  0  0  0  0  0  0  0  0
   -0.4977   -6.1996    0.0336 C   0  0  0  0  0  0  0  0  0  0  0  0
    0.2037   -6.1205    1.2366 C   0  0  0  0  0  0  0  0  0  0  0  0
    0.5739   -4.8760    1.7505 C   0  0  0  0  0  0  0  0  0  0  0  0
    0.2412   -3.7011    1.0603 C   0  0  0  0  0  0  0  0  0  0  0  0
    0.7375   -2.4283    1.6192 C   0  0  0  0  0  0  0  0  0  0  0  0
    0.7071   -2.1529    2.8064 O   0  0  0  0  0  0  0  0  0  0  0  0
    1.3286   -1.7141    0.6321 O   0  0  0  0  0  0  0  0  0  0  0  0
    2.0178   -0.5357    1.0724 C   0  0  0  0  0  0  0  0  0  0  0  0
    2.9422   -0.0239   -0.0483 C   0  0  0  0  0  0  0  0  0  0  0  0
    3.9442   -1.1042   -0.5199 C   0  0  0  0  0  0  0  0  0  0  0  0
    4.8514   -1.6268    0.5851 C   0  0  0  0  0  0  0  0  0  0  0  0
    2.1519    0.4779   -1.2793 C   0  0  0  0  0  0  0  0  0  0  0  0
    1.2319    1.6808   -1.0371 C   0  0  0  0  0  0  0  0  0  0  0  0
    1.9031    2.9368   -0.4786 C   0  0  0  0  0  0  0  0  0  0  0  0
    3.0084    3.4822   -1.3687 C   0  0  0  0  0  0  0  0  0  0  0  0
   -3.1269    5.5952   -2.2071 H   0  0  0  0  0  0  0  0  0  0  0  0
   -1.8981    4.3729   -2.5768 H   0  0  0  0  0  0  0  0  0  0  0  0
   -1.9138    5.1647   -0.9890 H   0  0  0  0  0  0  0  0  0  0  0  0
   -4.1189    3.3327   -2.0750 H   0  0  0  0  0  0  0  0  0  0  0  0
   -4.1341    4.1203   -0.4949 H   0  0  0  0  0  0  0  0  0  0  0  0
   -2.0526    2.8874    0.1394 H   0  0  0  0  0  0  0  0  0  0  0  0
   -2.0368    2.1011   -1.4400 H   0  0  0  0  0  0  0  0  0  0  0  0
   -4.2713    1.0777   -0.9611 H   0  0  0  0  0  0  0  0  0  0  0  0
   -4.3188    1.8688    0.5970 H   0  0  0  0  0  0  0  0  0  0  0  0
   -3.7195   -0.4569    0.8776 H   0  0  0  0  0  0  0  0  0  0  0  0
   -1.1635    1.1399    1.3729 H   0  0  0  0  0  0  0  0  0  0  0  0
   -1.6232   -0.3777    2.1207 H   0  0  0  0  0  0  0  0  0  0  0  0
   -3.0487    2.2941    2.5038 H   0  0  0  0  0  0  0  0  0  0  0  0
   -2.0831    1.3991    3.6785 H   0  0  0  0  0  0  0  0  0  0  0  0
   -3.6370    0.7424    3.1390 H   0  0  0  0  0  0  0  0  0  0  0  0
   -1.3349   -0.0042   -0.9849 H   0  0  0  0  0  0  0  0  0  0  0  0
   -2.8405   -0.8725   -1.3871 H   0  0  0  0  0  0  0  0  0  0  0  0
   -1.4095   -5.1004   -1.5795 H   0  0  0  0  0  0  0  0  0  0  0  0
   -0.7781   -7.1703   -0.3698 H   0  0  0  0  0  0  0  0  0  0  0  0
    0.4705   -7.0297    1.7714 H   0  0  0  0  0  0  0  0  0  0  0  0
    1.1353   -4.8232    2.6819 H   0  0  0  0  0  0  0  0  0  0  0  0
    2.6143   -0.7583    1.9652 H   0  0  0  0  0  0  0  0  0  0  0  0
    1.2800    0.2232    1.3508 H   0  0  0  0  0  0  0  0  0  0  0  0
    3.5263    0.8120    0.3554 H   0  0  0  0  0  0  0  0  0  0  0  0
    3.4120   -1.9479   -0.9758 H   0  0  0  0  0  0  0  0  0  0  0  0
    4.5812   -0.6776   -1.3052 H   0  0  0  0  0  0  0  0  0  0  0  0
    5.3630   -0.8051    1.0960 H   0  0  0  0  0  0  0  0  0  0  0  0
    4.2911   -2.2040    1.3263 H   0  0  0  0  0  0  0  0  0  0  0  0
    5.6135   -2.2890    0.1616 H   0  0  0  0  0  0  0  0  0  0  0  0
    1.5417   -0.3426   -1.6789 H   0  0  0  0  0  0  0  0  0  0  0  0
    2.8570    0.7380   -2.0788 H   0  0  0  0  0  0  0  0  0  0  0  0
    0.7460    1.9351   -1.9878 H   0  0  0  0  0  0  0  0  0  0  0  0
    0.4247    1.3927   -0.3583 H   0  0  0  0  0  0  0  0  0  0  0  0
    1.1359    3.7121   -0.3618 H   0  0  0  0  0  0  0  0  0  0  0  0
    2.2998    2.7445    0.5240 H   0  0  0  0  0  0  0  0  0  0  0  0
    3.8551    2.7918   -1.4253 H   0  0  0  0  0  0  0  0  0  0  0  0
    2.6413    3.6650   -2.3835 H   0  0  0  0  0  0  0  0  0  0  0  0
    3.3804    4.4303   -0.9673 H   0  0  0  0  0  0  0  0  0  0  0  0
  1  2  1  0
  2  3  1  0
  3  4  1  0
  4  5  1  0
  5  6  1  0
  6  7  1  0
  5  8  1  0
  8  9  1  0
  9 10  1  0
 10 11  2  0
 10 12  1  0
 12 13  2  0
 13 14  1  0
 14 15  2  0
 15 16  1  0
 16 17  2  0
 17 18  1  0
 18 19  2  0
 18 20  1  0
 20 21  1  0
 21 22  1  0
 22 23  1  0
 23 24  1  0
 22 25  1  0
 25 26  1  0
 26 27  1  0
 27 28  1  0
 17 12  1  0
  1 29  1  0
  1 30  1  0
  1 31  1  0
  2 32  1  0
  2 33  1  0
  3 34  1  0
  3 35  1  0
  4 36  1  0
  4 37  1  0
  5 38  1  0
  6 39  1  0
  6 40  1  0
  7 41  1  0
  7 42  1  0
  7 43  1  0
  8 44  1  0
  8 45  1  0
 13 46  1  0
 14 47  1  0
 15 48  1  0
 16 49  1  0
 21 50  1  0
 21 51  1  0
 22 52  1  0
 23 53  1  0
 23 54  1  0
 24 55  1  0
 24 56  1  0
 24 57  1  0
 25 58  1  0
 25 59  1  0
 26 60  1  0
 26 61  1  0
 27 62  1  0
 27 63  1  0
 28 64  1  0
 28 65  1  0
 28 66  1  0
M  END
>  <Energy>  (4) 
27.54795189821273

>  <Real charge>  (4) 
0

>  <Mult>  (4) 
1

$$$$
mol_868 553
     RDKit          3D

 66 66  0  0  0  0  0  0  0  0999 V2000
   -0.5094    4.1350    0.4509 C   0  0  0  0  0  0  0  0  0  0  0  0
   -1.7394    3.2439    0.5339 C   0  0  0  0  0  0  0  0  0  0  0  0
   -1.4699    1.9970    1.3756 C   0  0  0  0  0  0  0  0  0  0  0  0
   -2.7142    1.1316    1.6058 C   0  0  0  0  0  0  0  0  0  0  0  0
   -3.4266    0.6008    0.3383 C   0  0  0  0  0  0  0  0  0  0  0  0
   -4.6599   -0.2187    0.7867 C   0  0  0  0  0  0  0  0  0  0  0  0
   -5.5327   -0.7009   -0.3634 C   0  0  0  0  0  0  0  0  0  0  0  0
   -2.4869   -0.2116   -0.5701 C   0  0  0  0  0  0  0  0  0  0  0  0
   -1.9778   -1.3405    0.1514 O   0  0  0  0  0  0  0  0  0  0  0  0
   -1.2313   -2.1955   -0.5901 C   0  0  0  0  0  0  0  0  0  0  0  0
   -0.9534   -2.0807   -1.7706 O   0  0  0  0  0  0  0  0  0  0  0  0
   -0.8086   -3.3302    0.2600 C   0  0  0  0  0  0  0  0  0  0  0  0
   -1.7200   -3.8742    1.1824 C   0  0  0  0  0  0  0  0  0  0  0  0
   -1.3810   -5.0043    1.9298 C   0  0  0  0  0  0  0  0  0  0  0  0
   -0.1380   -5.6088    1.7551 C   0  0  0  0  0  0  0  0  0  0  0  0
    0.7732   -5.0765    0.8422 C   0  0  0  0  0  0  0  0  0  0  0  0
    0.4468   -3.9288    0.1018 C   0  0  0  0  0  0  0  0  0  0  0  0
    1.4916   -3.4043   -0.7979 C   0  0  0  0  0  0  0  0  0  0  0  0
    2.1564   -4.1091   -1.5388 O   0  0  0  0  0  0  0  0  0  0  0  0
    1.6766   -2.0869   -0.5426 O   0  0  0  0  0  0  0  0  0  0  0  0
    2.7538   -1.4961   -1.2823 C   0  0  0  0  0  0  0  0  0  0  0  0
    2.8252    0.0174   -0.9949 C   0  0  0  0  0  0  0  0  0  0  0  0
    1.5323    0.7535   -1.3990 C   0  0  0  0  0  0  0  0  0  0  0  0
    1.1653    0.6022   -2.8687 C   0  0  0  0  0  0  0  0  0  0  0  0
    3.1529    0.2403    0.5019 C   0  0  0  0  0  0  0  0  0  0  0  0
    3.3324    1.6952    0.9527 C   0  0  0  0  0  0  0  0  0  0  0  0
    4.4275    2.4436    0.1935 C   0  0  0  0  0  0  0  0  0  0  0  0
    4.6391    3.8389    0.7611 C   0  0  0  0  0  0  0  0  0  0  0  0
   -0.1967    4.4676    1.4458 H   0  0  0  0  0  0  0  0  0  0  0  0
    0.3279    3.6057   -0.0135 H   0  0  0  0  0  0  0  0  0  0  0  0
   -0.7250    5.0229   -0.1516 H   0  0  0  0  0  0  0  0  0  0  0  0
   -2.0352    2.9616   -0.4821 H   0  0  0  0  0  0  0  0  0  0  0  0
   -2.5673    3.8153    0.9691 H   0  0  0  0  0  0  0  0  0  0  0  0
   -0.6745    1.3998    0.9178 H   0  0  0  0  0  0  0  0  0  0  0  0
   -1.0888    2.3047    2.3578 H   0  0  0  0  0  0  0  0  0  0  0  0
   -2.4256    0.2862    2.2438 H   0  0  0  0  0  0  0  0  0  0  0  0
   -3.4330    1.7198    2.1917 H   0  0  0  0  0  0  0  0  0  0  0  0
   -3.7929    1.4584   -0.2399 H   0  0  0  0  0  0  0  0  0  0  0  0
   -4.3479   -1.0830    1.3855 H   0  0  0  0  0  0  0  0  0  0  0  0
   -5.2812    0.4057    1.4413 H   0  0  0  0  0  0  0  0  0  0  0  0
   -5.0248   -1.4621   -0.9625 H   0  0  0  0  0  0  0  0  0  0  0  0
   -5.8155    0.1290   -1.0184 H   0  0  0  0  0  0  0  0  0  0  0  0
   -6.4508   -1.1517    0.0276 H   0  0  0  0  0  0  0  0  0  0  0  0
   -1.6514    0.4099   -0.9067 H   0  0  0  0  0  0  0  0  0  0  0  0
   -3.0222   -0.5522   -1.4635 H   0  0  0  0  0  0  0  0  0  0  0  0
   -2.7068   -3.4332    1.3103 H   0  0  0  0  0  0  0  0  0  0  0  0
   -2.0934   -5.4210    2.6386 H   0  0  0  0  0  0  0  0  0  0  0  0
    0.1227   -6.4955    2.3288 H   0  0  0  0  0  0  0  0  0  0  0  0
    1.7442   -5.5521    0.7121 H   0  0  0  0  0  0  0  0  0  0  0  0
    2.6153   -1.6769   -2.3542 H   0  0  0  0  0  0  0  0  0  0  0  0
    3.6950   -1.9707   -0.9776 H   0  0  0  0  0  0  0  0  0  0  0  0
    3.6520    0.4155   -1.5961 H   0  0  0  0  0  0  0  0  0  0  0  0
    1.6449    1.8252   -1.2046 H   0  0  0  0  0  0  0  0  0  0  0  0
    0.6976    0.4067   -0.7822 H   0  0  0  0  0  0  0  0  0  0  0  0
    1.9967    0.9031   -3.5136 H   0  0  0  0  0  0  0  0  0  0  0  0
    0.3054    1.2373   -3.1057 H   0  0  0  0  0  0  0  0  0  0  0  0
    0.8887   -0.4266   -3.1143 H   0  0  0  0  0  0  0  0  0  0  0  0
    4.0726   -0.3079    0.7451 H   0  0  0  0  0  0  0  0  0  0  0  0
    2.3611   -0.2029    1.1195 H   0  0  0  0  0  0  0  0  0  0  0  0
    2.3830    2.2359    0.8700 H   0  0  0  0  0  0  0  0  0  0  0  0
    3.5815    1.6866    2.0217 H   0  0  0  0  0  0  0  0  0  0  0  0
    5.3688    1.8851    0.2498 H   0  0  0  0  0  0  0  0  0  0  0  0
    4.1636    2.5352   -0.8654 H   0  0  0  0  0  0  0  0  0  0  0  0
    5.4229    4.3603    0.2027 H   0  0  0  0  0  0  0  0  0  0  0  0
    3.7216    4.4324    0.6940 H   0  0  0  0  0  0  0  0  0  0  0  0
    4.9437    3.7937    1.8116 H   0  0  0  0  0  0  0  0  0  0  0  0
  1  2  1  0
  2  3  1  0
  3  4  1  0
  4  5  1  0
  5  6  1  0
  6  7  1  0
  5  8  1  0
  8  9  1  0
  9 10  1  0
 10 11  2  0
 10 12  1  0
 12 13  2  0
 13 14  1  0
 14 15  2  0
 15 16  1  0
 16 17  2  0
 17 18  1  0
 18 19  2  0
 18 20  1  0
 20 21  1  0
 21 22  1  0
 22 23  1  0
 23 24  1  0
 22 25  1  0
 25 26  1  0
 26 27  1  0
 27 28  1  0
 17 12  1  0
  1 29  1  0
  1 30  1  0
  1 31  1  0
  2 32  1  0
  2 33  1  0
  3 34  1  0
  3 35  1  0
  4 36  1  0
  4 37  1  0
  5 38  1  0
  6 39  1  0
  6 40  1  0
  7 41  1  0
  7 42  1  0
  7 43  1  0
  8 44  1  0
  8 45  1  0
 13 46  1  0
 14 47  1  0
 15 48  1  0
 16 49  1  0
 21 50  1  0
 21 51  1  0
 22 52  1  0
 23 53  1  0
 23 54  1  0
 24 55  1  0
 24 56  1  0
 24 57  1  0
 25 58  1  0
 25 59  1  0
 26 60  1  0
 26 61  1  0
 27 62  1  0
 27 63  1  0
 28 64  1  0
 28 65  1  0
 28 66  1  0
M  END
>  <Energy>  (5) 
27.668110765214127

>  <Real charge>  (5) 
0

>  <Mult>  (5) 
1

$$$$
mol_868 227
     RDKit          3D

 66 66  0  0  0  0  0  0  0  0999 V2000
    7.3184   -2.9279   -1.0882 C   0  0  0  0  0  0  0  0  0  0  0  0
    5.9063   -2.9210   -0.5247 C   0  0  0  0  0  0  0  0  0  0  0  0
    5.3359   -1.5033   -0.4593 C   0  0  0  0  0  0  0  0  0  0  0  0
    3.9162   -1.5036    0.1146 C   0  0  0  0  0  0  0  0  0  0  0  0
    3.2295   -0.1226    0.0768 C   0  0  0  0  0  0  0  0  0  0  0  0
    3.9982    0.9894    0.8236 C   0  0  0  0  0  0  0  0  0  0  0  0
    4.2161    0.7397    2.3093 C   0  0  0  0  0  0  0  0  0  0  0  0
    1.7772   -0.2668    0.5719 C   0  0  0  0  0  0  0  0  0  0  0  0
    1.0782    0.9872    0.5285 O   0  0  0  0  0  0  0  0  0  0  0  0
    0.5064    1.2978   -0.6613 C   0  0  0  0  0  0  0  0  0  0  0  0
    0.5396    0.6337   -1.6823 O   0  0  0  0  0  0  0  0  0  0  0  0
   -0.1810    2.6021   -0.5448 C   0  0  0  0  0  0  0  0  0  0  0  0
    0.4422    3.6538    0.1472 C   0  0  0  0  0  0  0  0  0  0  0  0
   -0.1481    4.9192    0.1868 C   0  0  0  0  0  0  0  0  0  0  0  0
   -1.3551    5.1484   -0.4720 C   0  0  0  0  0  0  0  0  0  0  0  0
   -1.9821    4.1093   -1.1605 C   0  0  0  0  0  0  0  0  0  0  0  0
   -1.4040    2.8311   -1.1868 C   0  0  0  0  0  0  0  0  0  0  0  0
   -2.1539    1.7720   -1.8861 C   0  0  0  0  0  0  0  0  0  0  0  0
   -2.6457    1.9091   -2.9931 O   0  0  0  0  0  0  0  0  0  0  0  0
   -2.3026    0.7188   -1.0474 O   0  0  0  0  0  0  0  0  0  0  0  0
   -3.0474   -0.3715   -1.6033 C   0  0  0  0  0  0  0  0  0  0  0  0
   -3.2428   -1.4643   -0.5372 C   0  0  0  0  0  0  0  0  0  0  0  0
   -1.9022   -2.0695   -0.0625 C   0  0  0  0  0  0  0  0  0  0  0  0
   -1.1033   -2.7446   -1.1683 C   0  0  0  0  0  0  0  0  0  0  0  0
   -4.0081   -0.9477    0.7048 C   0  0  0  0  0  0  0  0  0  0  0  0
   -5.4111   -0.4185    0.3925 C   0  0  0  0  0  0  0  0  0  0  0  0
   -6.1694   -0.0716    1.6750 C   0  0  0  0  0  0  0  0  0  0  0  0
   -7.5600    0.4632    1.3724 C   0  0  0  0  0  0  0  0  0  0  0  0
    7.7061   -3.9506   -1.1268 H   0  0  0  0  0  0  0  0  0  0  0  0
    7.9926   -2.3322   -0.4646 H   0  0  0  0  0  0  0  0  0  0  0  0
    7.3376   -2.5187   -2.1034 H   0  0  0  0  0  0  0  0  0  0  0  0
    5.9167   -3.3645    0.4778 H   0  0  0  0  0  0  0  0  0  0  0  0
    5.2664   -3.5520   -1.1524 H   0  0  0  0  0  0  0  0  0  0  0  0
    5.9933   -0.8847    0.1615 H   0  0  0  0  0  0  0  0  0  0  0  0
    5.3266   -1.0650   -1.4644 H   0  0  0  0  0  0  0  0  0  0  0  0
    3.3067   -2.2095   -0.4651 H   0  0  0  0  0  0  0  0  0  0  0  0
    3.9360   -1.8888    1.1414 H   0  0  0  0  0  0  0  0  0  0  0  0
    3.1866    0.1978   -0.9732 H   0  0  0  0  0  0  0  0  0  0  0  0
    4.9734    1.1431    0.3471 H   0  0  0  0  0  0  0  0  0  0  0  0
    3.4661    1.9410    0.7063 H   0  0  0  0  0  0  0  0  0  0  0  0
    4.8031   -0.1662    2.4841 H   0  0  0  0  0  0  0  0  0  0  0  0
    3.2676    0.6499    2.8460 H   0  0  0  0  0  0  0  0  0  0  0  0
    4.7656    1.5784    2.7496 H   0  0  0  0  0  0  0  0  0  0  0  0
    1.7536   -0.6087    1.6122 H   0  0  0  0  0  0  0  0  0  0  0  0
    1.2380   -1.0246   -0.0093 H   0  0  0  0  0  0  0  0  0  0  0  0
    1.3984    3.4996    0.6426 H   0  0  0  0  0  0  0  0  0  0  0  0
    0.3417    5.7306    0.7209 H   0  0  0  0  0  0  0  0  0  0  0  0
   -1.8087    6.1370   -0.4500 H   0  0  0  0  0  0  0  0  0  0  0  0
   -2.9264    4.2923   -1.6708 H   0  0  0  0  0  0  0  0  0  0  0  0
   -2.5097   -0.7705   -2.4705 H   0  0  0  0  0  0  0  0  0  0  0  0
   -4.0204   -0.0133   -1.9582 H   0  0  0  0  0  0  0  0  0  0  0  0
   -3.8359   -2.2695   -0.9907 H   0  0  0  0  0  0  0  0  0  0  0  0
   -2.1057   -2.8218    0.7101 H   0  0  0  0  0  0  0  0  0  0  0  0
   -1.2830   -1.2985    0.4108 H   0  0  0  0  0  0  0  0  0  0  0  0
   -0.7279   -2.0197   -1.8957 H   0  0  0  0  0  0  0  0  0  0  0  0
   -1.7107   -3.4864   -1.6960 H   0  0  0  0  0  0  0  0  0  0  0  0
   -0.2358   -3.2589   -0.7420 H   0  0  0  0  0  0  0  0  0  0  0  0
   -4.0997   -1.7710    1.4254 H   0  0  0  0  0  0  0  0  0  0  0  0
   -3.4272   -0.1621    1.2045 H   0  0  0  0  0  0  0  0  0  0  0  0
   -5.3449    0.4790   -0.2322 H   0  0  0  0  0  0  0  0  0  0  0  0
   -5.9719   -1.1721   -0.1732 H   0  0  0  0  0  0  0  0  0  0  0  0
   -6.2573   -0.9617    2.3088 H   0  0  0  0  0  0  0  0  0  0  0  0
   -5.6111    0.6797    2.2456 H   0  0  0  0  0  0  0  0  0  0  0  0
   -7.5071    1.3739    0.7671 H   0  0  0  0  0  0  0  0  0  0  0  0
   -8.0843    0.7037    2.3025 H   0  0  0  0  0  0  0  0  0  0  0  0
   -8.1553   -0.2771    0.8284 H   0  0  0  0  0  0  0  0  0  0  0  0
  1  2  1  0
  2  3  1  0
  3  4  1  0
  4  5  1  0
  5  6  1  0
  6  7  1  0
  5  8  1  0
  8  9  1  0
  9 10  1  0
 10 11  2  0
 10 12  1  0
 12 13  2  0
 13 14  1  0
 14 15  2  0
 15 16  1  0
 16 17  2  0
 17 18  1  0
 18 19  2  0
 18 20  1  0
 20 21  1  0
 21 22  1  0
 22 23  1  0
 23 24  1  0
 22 25  1  0
 25 26  1  0
 26 27  1  0
 27 28  1  0
 17 12  1  0
  1 29  1  0
  1 30  1  0
  1 31  1  0
  2 32  1  0
  2 33  1  0
  3 34  1  0
  3 35  1  0
  4 36  1  0
  4 37  1  0
  5 38  1  0
  6 39  1  0
  6 40  1  0
  7 41  1  0
  7 42  1  0
  7 43  1  0
  8 44  1  0
  8 45  1  0
 13 46  1  0
 14 47  1  0
 15 48  1  0
 16 49  1  0
 21 50  1  0
 21 51  1  0
 22 52  1  0
 23 53  1  0
 23 54  1  0
 24 55  1  0
 24 56  1  0
 24 57  1  0
 25 58  1  0
 25 59  1  0
 26 60  1  0
 26 61  1  0
 27 62  1  0
 27 63  1  0
 28 64  1  0
 28 65  1  0
 28 66  1  0
M  END
>  <Energy>  (6) 
27.67608779571596

>  <Real charge>  (6) 
0

>  <Mult>  (6) 
1

$$$$
mol_868 625
     RDKit          3D

 66 66  0  0  0  0  0  0  0  0999 V2000
   -0.7476    2.4967    2.2215 C   0  0  0  0  0  0  0  0  0  0  0  0
   -1.2470    1.2202    2.8805 C   0  0  0  0  0  0  0  0  0  0  0  0
   -1.7002    0.1532    1.8807 C   0  0  0  0  0  0  0  0  0  0  0  0
   -2.8989    0.5857    1.0293 C   0  0  0  0  0  0  0  0  0  0  0  0
   -3.5125   -0.5602    0.1899 C   0  0  0  0  0  0  0  0  0  0  0  0
   -4.6632   -0.0385   -0.7014 C   0  0  0  0  0  0  0  0  0  0  0  0
   -5.8490    0.5080    0.0818 C   0  0  0  0  0  0  0  0  0  0  0  0
   -2.4720   -1.2818   -0.6886 C   0  0  0  0  0  0  0  0  0  0  0  0
   -1.7972   -0.3278   -1.5184 O   0  0  0  0  0  0  0  0  0  0  0  0
   -0.8072   -0.8449   -2.2872 C   0  0  0  0  0  0  0  0  0  0  0  0
   -0.4519   -2.0093   -2.3285 O   0  0  0  0  0  0  0  0  0  0  0  0
   -0.2191    0.2398   -3.1043 C   0  0  0  0  0  0  0  0  0  0  0  0
   -1.0673    1.2085   -3.6702 C   0  0  0  0  0  0  0  0  0  0  0  0
   -0.5537    2.1908   -4.5198 C   0  0  0  0  0  0  0  0  0  0  0  0
    0.8057    2.2087   -4.8228 C   0  0  0  0  0  0  0  0  0  0  0  0
    1.6554    1.2520   -4.2663 C   0  0  0  0  0  0  0  0  0  0  0  0
    1.1495    0.2728   -3.3956 C   0  0  0  0  0  0  0  0  0  0  0  0
    2.1327   -0.6606   -2.8134 C   0  0  0  0  0  0  0  0  0  0  0  0
    3.0222   -1.1868   -3.4616 O   0  0  0  0  0  0  0  0  0  0  0  0
    1.9771   -0.6927   -1.4682 O   0  0  0  0  0  0  0  0  0  0  0  0
    2.9746   -1.4641   -0.7852 C   0  0  0  0  0  0  0  0  0  0  0  0
    2.6336   -1.5601    0.7129 C   0  0  0  0  0  0  0  0  0  0  0  0
    1.3587   -2.3960    0.9630 C   0  0  0  0  0  0  0  0  0  0  0  0
    1.4697   -3.8481    0.5207 C   0  0  0  0  0  0  0  0  0  0  0  0
    2.4410   -0.1706    1.3682 C   0  0  0  0  0  0  0  0  0  0  0  0
    3.6943    0.7094    1.3326 C   0  0  0  0  0  0  0  0  0  0  0  0
    3.4852    2.0849    1.9734 C   0  0  0  0  0  0  0  0  0  0  0  0
    3.2038    2.0300    3.4669 C   0  0  0  0  0  0  0  0  0  0  0  0
   -1.5576    3.0267    1.7118 H   0  0  0  0  0  0  0  0  0  0  0  0
   -0.3332    3.1721    2.9768 H   0  0  0  0  0  0  0  0  0  0  0  0
    0.0383    2.2822    1.4911 H   0  0  0  0  0  0  0  0  0  0  0  0
   -0.4369    0.8016    3.4897 H   0  0  0  0  0  0  0  0  0  0  0  0
   -2.0672    1.4613    3.5666 H   0  0  0  0  0  0  0  0  0  0  0  0
   -1.9605   -0.7541    2.4390 H   0  0  0  0  0  0  0  0  0  0  0  0
   -0.8550   -0.0987    1.2324 H   0  0  0  0  0  0  0  0  0  0  0  0
   -2.6008    1.4055    0.3648 H   0  0  0  0  0  0  0  0  0  0  0  0
   -3.6665    0.9872    1.7009 H   0  0  0  0  0  0  0  0  0  0  0  0
   -3.9301   -1.3066    0.8787 H   0  0  0  0  0  0  0  0  0  0  0  0
   -5.0273   -0.8596   -1.3315 H   0  0  0  0  0  0  0  0  0  0  0  0
   -4.2953    0.7399   -1.3810 H   0  0  0  0  0  0  0  0  0  0  0  0
   -6.2105   -0.2239    0.8108 H   0  0  0  0  0  0  0  0  0  0  0  0
   -5.5926    1.4303    0.6108 H   0  0  0  0  0  0  0  0  0  0  0  0
   -6.6727    0.7405   -0.6010 H   0  0  0  0  0  0  0  0  0  0  0  0
   -2.9680   -2.0252   -1.3248 H   0  0  0  0  0  0  0  0  0  0  0  0
   -1.7478   -1.8078   -0.0581 H   0  0  0  0  0  0  0  0  0  0  0  0
   -2.1367    1.1927   -3.4682 H   0  0  0  0  0  0  0  0  0  0  0  0
   -1.2178    2.9339   -4.9558 H   0  0  0  0  0  0  0  0  0  0  0  0
    1.2055    2.9667   -5.4928 H   0  0  0  0  0  0  0  0  0  0  0  0
    2.7178    1.2734   -4.5052 H   0  0  0  0  0  0  0  0  0  0  0  0
    3.9483   -0.9789   -0.9177 H   0  0  0  0  0  0  0  0  0  0  0  0
    3.0455   -2.4631   -1.2290 H   0  0  0  0  0  0  0  0  0  0  0  0
    3.4697   -2.0637    1.2160 H   0  0  0  0  0  0  0  0  0  0  0  0
    1.1304   -2.3896    2.0362 H   0  0  0  0  0  0  0  0  0  0  0  0
    0.5043   -1.9355    0.4584 H   0  0  0  0  0  0  0  0  0  0  0  0
    0.5879   -4.4070    0.8509 H   0  0  0  0  0  0  0  0  0  0  0  0
    1.5214   -3.9361   -0.5680 H   0  0  0  0  0  0  0  0  0  0  0  0
    2.3545   -4.3254    0.9532 H   0  0  0  0  0  0  0  0  0  0  0  0
    1.6117    0.3594    0.8845 H   0  0  0  0  0  0  0  0  0  0  0  0
    2.1454   -0.3236    2.4128 H   0  0  0  0  0  0  0  0  0  0  0  0
    4.5228    0.1929    1.8317 H   0  0  0  0  0  0  0  0  0  0  0  0
    4.0010    0.8765    0.2945 H   0  0  0  0  0  0  0  0  0  0  0  0
    4.3912    2.6816    1.8130 H   0  0  0  0  0  0  0  0  0  0  0  0
    2.6674    2.6109    1.4674 H   0  0  0  0  0  0  0  0  0  0  0  0
    3.1744    3.0435    3.8800 H   0  0  0  0  0  0  0  0  0  0  0  0
    2.2383    1.5614    3.6776 H   0  0  0  0  0  0  0  0  0  0  0  0
    3.9837    1.4717    3.9940 H   0  0  0  0  0  0  0  0  0  0  0  0
  1  2  1  0
  2  3  1  0
  3  4  1  0
  4  5  1  0
  5  6  1  0
  6  7  1  0
  5  8  1  0
  8  9  1  0
  9 10  1  0
 10 11  2  0
 10 12  1  0
 12 13  2  0
 13 14  1  0
 14 15  2  0
 15 16  1  0
 16 17  2  0
 17 18  1  0
 18 19  2  0
 18 20  1  0
 20 21  1  0
 21 22  1  0
 22 23  1  0
 23 24  1  0
 22 25  1  0
 25 26  1  0
 26 27  1  0
 27 28  1  0
 17 12  1  0
  1 29  1  0
  1 30  1  0
  1 31  1  0
  2 32  1  0
  2 33  1  0
  3 34  1  0
  3 35  1  0
  4 36  1  0
  4 37  1  0
  5 38  1  0
  6 39  1  0
  6 40  1  0
  7 41  1  0
  7 42  1  0
  7 43  1  0
  8 44  1  0
  8 45  1  0
 13 46  1  0
 14 47  1  0
 15 48  1  0
 16 49  1  0
 21 50  1  0
 21 51  1  0
 22 52  1  0
 23 53  1  0
 23 54  1  0
 24 55  1  0
 24 56  1  0
 24 57  1  0
 25 58  1  0
 25 59  1  0
 26 60  1  0
 26 61  1  0
 27 62  1  0
 27 63  1  0
 28 64  1  0
 28 65  1  0
 28 66  1  0
M  END
>  <Energy>  (7) 
27.738733164847044

>  <Real charge>  (7) 
0

>  <Mult>  (7) 
1

$$$$
