mol_26 172
     RDKit          3D

 24 23  0  0  0  0  0  0  0  0999 V2000
   -3.9601    0.6718    0.6844 C   0  0  0  0  0  0  0  0  0  0  0  0
   -2.7739    0.6388   -0.2660 C   0  0  0  0  0  0  0  0  0  0  0  0
   -1.4702    0.3439    0.4754 C   0  0  0  0  0  0  0  0  0  0  0  0
   -0.2795    0.3116   -0.4842 C   0  0  0  0  0  0  0  0  0  0  0  0
    1.0252    0.0165    0.2576 C   0  0  0  0  0  0  0  0  0  0  0  0
    2.2140   -0.0157   -0.7004 C   0  0  0  0  0  0  0  0  0  0  0  0
    3.5166   -0.3089    0.0303 C   0  0  0  0  0  0  0  0  0  0  0  0
    4.5790   -0.3251   -0.9132 O   0  0  0  0  0  0  0  0  0  0  0  0
   -3.8322    1.4489    1.4447 H   0  0  0  0  0  0  0  0  0  0  0  0
   -4.0823   -0.2899    1.1928 H   0  0  0  0  0  0  0  0  0  0  0  0
   -4.8816    0.8842    0.1333 H   0  0  0  0  0  0  0  0  0  0  0  0
   -2.6993    1.6034   -0.7815 H   0  0  0  0  0  0  0  0  0  0  0  0
   -2.9480   -0.1258   -1.0320 H   0  0  0  0  0  0  0  0  0  0  0  0
   -1.3029    1.1093    1.2430 H   0  0  0  0  0  0  0  0  0  0  0  0
   -1.5516   -0.6199    0.9926 H   0  0  0  0  0  0  0  0  0  0  0  0
   -0.1982    1.2756   -1.0012 H   0  0  0  0  0  0  0  0  0  0  0  0
   -0.4469   -0.4538   -1.2517 H   0  0  0  0  0  0  0  0  0  0  0  0
    1.1926    0.7820    1.0250 H   0  0  0  0  0  0  0  0  0  0  0  0
    0.9439   -0.9474    0.7745 H   0  0  0  0  0  0  0  0  0  0  0  0
    2.3019    0.9417   -1.2292 H   0  0  0  0  0  0  0  0  0  0  0  0
    2.0551   -0.7737   -1.4777 H   0  0  0  0  0  0  0  0  0  0  0  0
    3.4759   -1.2844    0.5253 H   0  0  0  0  0  0  0  0  0  0  0  0
    3.7271    0.4621    0.7783 H   0  0  0  0  0  0  0  0  0  0  0  0
    5.3955   -0.5139   -0.4201 H   0  0  0  0  0  0  0  0  0  0  0  0
  1  2  1  0
  2  3  1  0
  3  4  1  0
  4  5  1  0
  5  6  1  0
  6  7  1  0
  7  8  1  0
  1  9  1  0
  1 10  1  0
  1 11  1  0
  2 12  1  0
  2 13  1  0
  3 14  1  0
  3 15  1  0
  4 16  1  0
  4 17  1  0
  5 18  1  0
  5 19  1  0
  6 20  1  0
  6 21  1  0
  7 22  1  0
  7 23  1  0
  8 24  1  0
M  END
>  <Energy>  (1) 
-2.6226550503441857

>  <Real charge>  (1) 
0

>  <Mult>  (1) 
1

$$$$
mol_26 64
     RDKit          3D

 24 23  0  0  0  0  0  0  0  0999 V2000
    3.9095   -0.3187    0.6566 C   0  0  0  0  0  0  0  0  0  0  0  0
    2.7800    0.2736   -0.1710 C   0  0  0  0  0  0  0  0  0  0  0  0
    1.4122   -0.0968    0.4018 C   0  0  0  0  0  0  0  0  0  0  0  0
    0.2788    0.5008   -0.4335 C   0  0  0  0  0  0  0  0  0  0  0  0
   -1.0905    0.1304    0.1399 C   0  0  0  0  0  0  0  0  0  0  0  0
   -2.2240    0.7308   -0.6969 C   0  0  0  0  0  0  0  0  0  0  0  0
   -3.5981    0.4035   -0.1252 C   0  0  0  0  0  0  0  0  0  0  0  0
   -3.8211   -0.9984   -0.1716 O   0  0  0  0  0  0  0  0  0  0  0  0
    3.8751    0.0488    1.6872 H   0  0  0  0  0  0  0  0  0  0  0  0
    3.8482   -1.4114    0.6789 H   0  0  0  0  0  0  0  0  0  0  0  0
    4.8782   -0.0414    0.2292 H   0  0  0  0  0  0  0  0  0  0  0  0
    2.8889    1.3640   -0.1999 H   0  0  0  0  0  0  0  0  0  0  0  0
    2.8622   -0.0882   -1.2026 H   0  0  0  0  0  0  0  0  0  0  0  0
    1.3367    0.2637    1.4350 H   0  0  0  0  0  0  0  0  0  0  0  0
    1.3100   -1.1885    0.4324 H   0  0  0  0  0  0  0  0  0  0  0  0
    0.3813    1.5924   -0.4639 H   0  0  0  0  0  0  0  0  0  0  0  0
    0.3541    0.1400   -1.4665 H   0  0  0  0  0  0  0  0  0  0  0  0
   -1.1660    0.4929    1.1723 H   0  0  0  0  0  0  0  0  0  0  0  0
   -1.1883   -0.9613    0.1725 H   0  0  0  0  0  0  0  0  0  0  0  0
   -2.1549    0.3399   -1.7193 H   0  0  0  0  0  0  0  0  0  0  0  0
   -2.1079    1.8195   -0.7479 H   0  0  0  0  0  0  0  0  0  0  0  0
   -4.3764    0.8950   -0.7174 H   0  0  0  0  0  0  0  0  0  0  0  0
   -3.6813    0.7404    0.9130 H   0  0  0  0  0  0  0  0  0  0  0  0
   -4.7065   -1.1589    0.1969 H   0  0  0  0  0  0  0  0  0  0  0  0
  1  2  1  0
  2  3  1  0
  3  4  1  0
  4  5  1  0
  5  6  1  0
  6  7  1  0
  7  8  1  0
  1  9  1  0
  1 10  1  0
  1 11  1  0
  2 12  1  0
  2 13  1  0
  3 14  1  0
  3 15  1  0
  4 16  1  0
  4 17  1  0
  5 18  1  0
  5 19  1  0
  6 20  1  0
  6 21  1  0
  7 22  1  0
  7 23  1  0
  8 24  1  0
M  END
>  <Energy>  (2) 
-2.301360384900335

>  <Real charge>  (2) 
0

>  <Mult>  (2) 
1

$$$$
mol_26 12
     RDKit          3D

 24 23  0  0  0  0  0  0  0  0999 V2000
    3.9606    0.0140   -0.0764 C   0  0  0  0  0  0  0  0  0  0  0  0
    2.6505   -0.6090    0.3787 C   0  0  0  0  0  0  0  0  0  0  0  0
    1.4481    0.2086   -0.0925 C   0  0  0  0  0  0  0  0  0  0  0  0
    0.1323   -0.4214    0.3673 C   0  0  0  0  0  0  0  0  0  0  0  0
   -1.0714    0.3970   -0.1041 C   0  0  0  0  0  0  0  0  0  0  0  0
   -2.3877   -0.2344    0.3580 C   0  0  0  0  0  0  0  0  0  0  0  0
   -3.6006    0.5841   -0.0704 C   0  0  0  0  0  0  0  0  0  0  0  0
   -3.6949    0.6485   -1.4864 O   0  0  0  0  0  0  0  0  0  0  0  0
    4.8068   -0.5867    0.2714 H   0  0  0  0  0  0  0  0  0  0  0  0
    4.0743    1.0258    0.3254 H   0  0  0  0  0  0  0  0  0  0  0  0
    4.0098    0.0701   -1.1685 H   0  0  0  0  0  0  0  0  0  0  0  0
    2.6470   -0.6800    1.4726 H   0  0  0  0  0  0  0  0  0  0  0  0
    2.5829   -1.6306   -0.0131 H   0  0  0  0  0  0  0  0  0  0  0  0
    1.4586    0.2801   -1.1870 H   0  0  0  0  0  0  0  0  0  0  0  0
    1.5227    1.2306    0.2987 H   0  0  0  0  0  0  0  0  0  0  0  0
    0.0576   -1.4432   -0.0243 H   0  0  0  0  0  0  0  0  0  0  0  0
    0.1221   -0.4928    1.4617 H   0  0  0  0  0  0  0  0  0  0  0  0
   -0.9973    1.4183    0.2890 H   0  0  0  0  0  0  0  0  0  0  0  0
   -1.0563    0.4696   -1.1981 H   0  0  0  0  0  0  0  0  0  0  0  0
   -2.3887   -0.3299    1.4499 H   0  0  0  0  0  0  0  0  0  0  0  0
   -2.4636   -1.2440   -0.0635 H   0  0  0  0  0  0  0  0  0  0  0  0
   -3.5380    1.6065    0.3152 H   0  0  0  0  0  0  0  0  0  0  0  0
   -4.5211    0.1334    0.3142 H   0  0  0  0  0  0  0  0  0  0  0  0
   -3.7536   -0.2638   -1.8177 H   0  0  0  0  0  0  0  0  0  0  0  0
  1  2  1  0
  2  3  1  0
  3  4  1  0
  4  5  1  0
  5  6  1  0
  6  7  1  0
  7  8  1  0
  1  9  1  0
  1 10  1  0
  1 11  1  0
  2 12  1  0
  2 13  1  0
  3 14  1  0
  3 15  1  0
  4 16  1  0
  4 17  1  0
  5 18  1  0
  5 19  1  0
  6 20  1  0
  6 21  1  0
  7 22  1  0
  7 23  1  0
  8 24  1  0
M  END
>  <Energy>  (3) 
-2.1895466310917064

>  <Real charge>  (3) 
0

>  <Mult>  (3) 
1

$$$$
mol_26 247
     RDKit          3D

 24 23  0  0  0  0  0  0  0  0999 V2000
    3.7916    0.7984    0.4885 C   0  0  0  0  0  0  0  0  0  0  0  0
    2.4383    0.1873    0.8152 C   0  0  0  0  0  0  0  0  0  0  0  0
    1.4302    0.4254   -0.3089 C   0  0  0  0  0  0  0  0  0  0  0  0
    0.0697   -0.1916    0.0234 C   0  0  0  0  0  0  0  0  0  0  0  0
   -0.9383    0.0513   -1.1019 C   0  0  0  0  0  0  0  0  0  0  0  0
   -2.2837   -0.6364   -0.8687 C   0  0  0  0  0  0  0  0  0  0  0  0
   -3.0518   -0.0897    0.3271 C   0  0  0  0  0  0  0  0  0  0  0  0
   -4.3205   -0.7294    0.3852 O   0  0  0  0  0  0  0  0  0  0  0  0
    4.2091    0.3619   -0.4244 H   0  0  0  0  0  0  0  0  0  0  0  0
    4.4968    0.6164    1.3055 H   0  0  0  0  0  0  0  0  0  0  0  0
    3.7091    1.8806    0.3458 H   0  0  0  0  0  0  0  0  0  0  0  0
    2.5610   -0.8890    0.9835 H   0  0  0  0  0  0  0  0  0  0  0  0
    2.0639    0.6213    1.7496 H   0  0  0  0  0  0  0  0  0  0  0  0
    1.8122   -0.0067   -1.2419 H   0  0  0  0  0  0  0  0  0  0  0  0
    1.3136    1.5032   -0.4759 H   0  0  0  0  0  0  0  0  0  0  0  0
    0.1859   -1.2699    0.1866 H   0  0  0  0  0  0  0  0  0  0  0  0
   -0.3007    0.2413    0.9594 H   0  0  0  0  0  0  0  0  0  0  0  0
   -1.0945    1.1289   -1.2333 H   0  0  0  0  0  0  0  0  0  0  0  0
   -0.5209   -0.3243   -2.0444 H   0  0  0  0  0  0  0  0  0  0  0  0
   -2.9017   -0.5217   -1.7684 H   0  0  0  0  0  0  0  0  0  0  0  0
   -2.1404   -1.7176   -0.7490 H   0  0  0  0  0  0  0  0  0  0  0  0
   -3.2111    0.9887    0.2292 H   0  0  0  0  0  0  0  0  0  0  0  0
   -2.5270   -0.2910    1.2652 H   0  0  0  0  0  0  0  0  0  0  0  0
   -4.7907   -0.3607    1.1524 H   0  0  0  0  0  0  0  0  0  0  0  0
  1  2  1  0
  2  3  1  0
  3  4  1  0
  4  5  1  0
  5  6  1  0
  6  7  1  0
  7  8  1  0
  1  9  1  0
  1 10  1  0
  1 11  1  0
  2 12  1  0
  2 13  1  0
  3 14  1  0
  3 15  1  0
  4 16  1  0
  4 17  1  0
  5 18  1  0
  5 19  1  0
  6 20  1  0
  6 21  1  0
  7 22  1  0
  7 23  1  0
  8 24  1  0
M  END
>  <Energy>  (4) 
-1.8231219914299406

>  <Real charge>  (4) 
0

>  <Mult>  (4) 
1

$$$$
mol_26 99
     RDKit          3D

 24 23  0  0  0  0  0  0  0  0999 V2000
   -3.9318    0.0919    0.1363 C   0  0  0  0  0  0  0  0  0  0  0  0
   -2.6398   -0.7081    0.0897 C   0  0  0  0  0  0  0  0  0  0  0  0
   -1.4175    0.2061    0.0105 C   0  0  0  0  0  0  0  0  0  0  0  0
   -0.1200   -0.6026   -0.0361 C   0  0  0  0  0  0  0  0  0  0  0  0
    1.1039    0.3126   -0.1159 C   0  0  0  0  0  0  0  0  0  0  0  0
    2.4015   -0.4993   -0.1612 C   0  0  0  0  0  0  0  0  0  0  0  0
    3.6394    0.3772   -0.3184 C   0  0  0  0  0  0  0  0  0  0  0  0
    3.8410    1.1883    0.8299 O   0  0  0  0  0  0  0  0  0  0  0  0
   -4.0426    0.7107   -0.7599 H   0  0  0  0  0  0  0  0  0  0  0  0
   -3.9557    0.7480    1.0123 H   0  0  0  0  0  0  0  0  0  0  0  0
   -4.7928   -0.5815    0.1927 H   0  0  0  0  0  0  0  0  0  0  0  0
   -2.5755   -1.3395    0.9835 H   0  0  0  0  0  0  0  0  0  0  0  0
   -2.6620   -1.3765   -0.7789 H   0  0  0  0  0  0  0  0  0  0  0  0
   -1.4025    0.8754    0.8794 H   0  0  0  0  0  0  0  0  0  0  0  0
   -1.4888    0.8383   -0.8830 H   0  0  0  0  0  0  0  0  0  0  0  0
   -0.0483   -1.2343    0.8576 H   0  0  0  0  0  0  0  0  0  0  0  0
   -0.1357   -1.2718   -0.9050 H   0  0  0  0  0  0  0  0  0  0  0  0
    1.1109    0.9820    0.7521 H   0  0  0  0  0  0  0  0  0  0  0  0
    1.0336    0.9421   -1.0112 H   0  0  0  0  0  0  0  0  0  0  0  0
    2.3608   -1.2060   -0.9983 H   0  0  0  0  0  0  0  0  0  0  0  0
    2.4863   -1.0832    0.7633 H   0  0  0  0  0  0  0  0  0  0  0  0
    4.5254   -0.2547   -0.4344 H   0  0  0  0  0  0  0  0  0  0  0  0
    3.5681    1.0214   -1.2009 H   0  0  0  0  0  0  0  0  0  0  0  0
    3.1422    1.8636    0.8419 H   0  0  0  0  0  0  0  0  0  0  0  0
  1  2  1  0
  2  3  1  0
  3  4  1  0
  4  5  1  0
  5  6  1  0
  6  7  1  0
  7  8  1  0
  1  9  1  0
  1 10  1  0
  1 11  1  0
  2 12  1  0
  2 13  1  0
  3 14  1  0
  3 15  1  0
  4 16  1  0
  4 17  1  0
  5 18  1  0
  5 19  1  0
  6 20  1  0
  6 21  1  0
  7 22  1  0
  7 23  1  0
  8 24  1  0
M  END
>  <Energy>  (5) 
-1.8113906109964433

>  <Real charge>  (5) 
0

>  <Mult>  (5) 
1

$$$$
mol_26 392
     RDKit          3D

 24 23  0  0  0  0  0  0  0  0999 V2000
    3.4017    0.6426    0.6504 C   0  0  0  0  0  0  0  0  0  0  0  0
    2.9292   -0.3777   -0.3737 C   0  0  0  0  0  0  0  0  0  0  0  0
    1.5280   -0.9237   -0.0910 C   0  0  0  0  0  0  0  0  0  0  0  0
    0.4293    0.1350   -0.2094 C   0  0  0  0  0  0  0  0  0  0  0  0
   -0.9581   -0.4834   -0.0229 C   0  0  0  0  0  0  0  0  0  0  0  0
   -2.0566    0.5713   -0.1374 C   0  0  0  0  0  0  0  0  0  0  0  0
   -3.4401   -0.0361    0.0465 C   0  0  0  0  0  0  0  0  0  0  0  0
   -4.4128    0.9929   -0.0708 O   0  0  0  0  0  0  0  0  0  0  0  0
    4.4415    0.9210    0.4505 H   0  0  0  0  0  0  0  0  0  0  0  0
    2.8020    1.5566    0.6127 H   0  0  0  0  0  0  0  0  0  0  0  0
    3.3495    0.2348    1.6648 H   0  0  0  0  0  0  0  0  0  0  0  0
    2.9612    0.0683   -1.3746 H   0  0  0  0  0  0  0  0  0  0  0  0
    3.6342   -1.2176   -0.3786 H   0  0  0  0  0  0  0  0  0  0  0  0
    1.5034   -1.3726    0.9095 H   0  0  0  0  0  0  0  0  0  0  0  0
    1.3255   -1.7320   -0.8047 H   0  0  0  0  0  0  0  0  0  0  0  0
    0.4871    0.6164   -1.1931 H   0  0  0  0  0  0  0  0  0  0  0  0
    0.5776    0.9160    0.5447 H   0  0  0  0  0  0  0  0  0  0  0  0
   -1.0149   -0.9681    0.9593 H   0  0  0  0  0  0  0  0  0  0  0  0
   -1.1179   -1.2627   -0.7780 H   0  0  0  0  0  0  0  0  0  0  0  0
   -2.0053    1.0688   -1.1140 H   0  0  0  0  0  0  0  0  0  0  0  0
   -1.9046    1.3608    0.6093 H   0  0  0  0  0  0  0  0  0  0  0  0
   -3.5368   -0.4954    1.0354 H   0  0  0  0  0  0  0  0  0  0  0  0
   -3.6395   -0.7927   -0.7191 H   0  0  0  0  0  0  0  0  0  0  0  0
   -5.2836    0.5774    0.0505 H   0  0  0  0  0  0  0  0  0  0  0  0
  1  2  1  0
  2  3  1  0
  3  4  1  0
  4  5  1  0
  5  6  1  0
  6  7  1  0
  7  8  1  0
  1  9  1  0
  1 10  1  0
  1 11  1  0
  2 12  1  0
  2 13  1  0
  3 14  1  0
  3 15  1  0
  4 16  1  0
  4 17  1  0
  5 18  1  0
  5 19  1  0
  6 20  1  0
  6 21  1  0
  7 22  1  0
  7 23  1  0
  8 24  1  0
M  END
>  <Energy>  (6) 
-1.798093266952827

>  <Real charge>  (6) 
0

>  <Mult>  (6) 
1

$$$$
mol_26 224
     RDKit          3D

 24 23  0  0  0  0  0  0  0  0999 V2000
   -3.6586    0.6394   -0.5825 C   0  0  0  0  0  0  0  0  0  0  0  0
   -2.6587   -0.4387   -0.1957 C   0  0  0  0  0  0  0  0  0  0  0  0
   -1.2293    0.1045   -0.1734 C   0  0  0  0  0  0  0  0  0  0  0  0
   -0.2284   -0.9867    0.2131 C   0  0  0  0  0  0  0  0  0  0  0  0
    1.2062   -0.4721    0.3617 C   0  0  0  0  0  0  0  0  0  0  0  0
    1.8167    0.0139   -0.9518 C   0  0  0  0  0  0  0  0  0  0  0  0
    3.2773    0.4083   -0.7770 C   0  0  0  0  0  0  0  0  0  0  0  0
    3.7860    0.8527   -2.0271 O   0  0  0  0  0  0  0  0  0  0  0  0
   -4.6734    0.2295   -0.5915 H   0  0  0  0  0  0  0  0  0  0  0  0
   -3.4430    1.0347   -1.5803 H   0  0  0  0  0  0  0  0  0  0  0  0
   -3.6341    1.4706    0.1294 H   0  0  0  0  0  0  0  0  0  0  0  0
   -2.7305   -1.2684   -0.9086 H   0  0  0  0  0  0  0  0  0  0  0  0
   -2.9224   -0.8352    0.7917 H   0  0  0  0  0  0  0  0  0  0  0  0
   -0.9841    0.5065   -1.1627 H   0  0  0  0  0  0  0  0  0  0  0  0
   -1.1632    0.9342    0.5408 H   0  0  0  0  0  0  0  0  0  0  0  0
   -0.2547   -1.7937   -0.5293 H   0  0  0  0  0  0  0  0  0  0  0  0
   -0.5329   -1.4285    1.1701 H   0  0  0  0  0  0  0  0  0  0  0  0
    1.2324    0.3351    1.1038 H   0  0  0  0  0  0  0  0  0  0  0  0
    1.8214   -1.2879    0.7614 H   0  0  0  0  0  0  0  0  0  0  0  0
    1.7412   -0.7673   -1.7183 H   0  0  0  0  0  0  0  0  0  0  0  0
    1.2626    0.8750   -1.3430 H   0  0  0  0  0  0  0  0  0  0  0  0
    3.3778    1.2216   -0.0512 H   0  0  0  0  0  0  0  0  0  0  0  0
    3.8753   -0.4450   -0.4417 H   0  0  0  0  0  0  0  0  0  0  0  0
    4.7164    1.0973   -1.8856 H   0  0  0  0  0  0  0  0  0  0  0  0
  1  2  1  0
  2  3  1  0
  3  4  1  0
  4  5  1  0
  5  6  1  0
  6  7  1  0
  7  8  1  0
  1  9  1  0
  1 10  1  0
  1 11  1  0
  2 12  1  0
  2 13  1  0
  3 14  1  0
  3 15  1  0
  4 16  1  0
  4 17  1  0
  5 18  1  0
  5 19  1  0
  6 20  1  0
  6 21  1  0
  7 22  1  0
  7 23  1  0
  8 24  1  0
M  END
>  <Energy>  (7) 
-1.7502355574642297

>  <Real charge>  (7) 
0

>  <Mult>  (7) 
1

$$$$
mol_26 418
     RDKit          3D

 24 23  0  0  0  0  0  0  0  0999 V2000
   -3.6704   -0.6113    0.6459 C   0  0  0  0  0  0  0  0  0  0  0  0
   -2.2761   -0.0060    0.5865 C   0  0  0  0  0  0  0  0  0  0  0  0
   -1.6457   -0.1936   -0.7939 C   0  0  0  0  0  0  0  0  0  0  0  0
   -0.2871    0.4973   -0.9419 C   0  0  0  0  0  0  0  0  0  0  0  0
    0.8019   -0.1047   -0.0512 C   0  0  0  0  0  0  0  0  0  0  0  0
    2.1586    0.5442   -0.3215 C   0  0  0  0  0  0  0  0  0  0  0  0
    3.2493   -0.0447    0.5621 C   0  0  0  0  0  0  0  0  0  0  0  0
    4.4804    0.5983    0.2623 O   0  0  0  0  0  0  0  0  0  0  0  0
   -4.3357   -0.1375   -0.0830 H   0  0  0  0  0  0  0  0  0  0  0  0
   -3.6407   -1.6855    0.4373 H   0  0  0  0  0  0  0  0  0  0  0  0
   -4.1026   -0.4702    1.6415 H   0  0  0  0  0  0  0  0  0  0  0  0
   -2.3375    1.0616    0.8267 H   0  0  0  0  0  0  0  0  0  0  0  0
   -1.6569   -0.4791    1.3560 H   0  0  0  0  0  0  0  0  0  0  0  0
   -1.5399   -1.2636   -1.0110 H   0  0  0  0  0  0  0  0  0  0  0  0
   -2.3217    0.2167   -1.5545 H   0  0  0  0  0  0  0  0  0  0  0  0
   -0.3932    1.5674   -0.7259 H   0  0  0  0  0  0  0  0  0  0  0  0
    0.0239    0.4167   -1.9910 H   0  0  0  0  0  0  0  0  0  0  0  0
    0.8694   -1.1843   -0.2313 H   0  0  0  0  0  0  0  0  0  0  0  0
    0.5434    0.0340    1.0044 H   0  0  0  0  0  0  0  0  0  0  0  0
    2.1013    1.6272   -0.1548 H   0  0  0  0  0  0  0  0  0  0  0  0
    2.4377    0.4175   -1.3750 H   0  0  0  0  0  0  0  0  0  0  0  0
    3.3633   -1.1179    0.3788 H   0  0  0  0  0  0  0  0  0  0  0  0
    3.0224    0.1141    1.6211 H   0  0  0  0  0  0  0  0  0  0  0  0
    5.1561    0.2035    0.8394 H   0  0  0  0  0  0  0  0  0  0  0  0
  1  2  1  0
  2  3  1  0
  3  4  1  0
  4  5  1  0
  5  6  1  0
  6  7  1  0
  7  8  1  0
  1  9  1  0
  1 10  1  0
  1 11  1  0
  2 12  1  0
  2 13  1  0
  3 14  1  0
  3 15  1  0
  4 16  1  0
  4 17  1  0
  5 18  1  0
  5 19  1  0
  6 20  1  0
  6 21  1  0
  7 22  1  0
  7 23  1  0
  8 24  1  0
M  END
>  <Energy>  (8) 
-1.7457850466703293

>  <Real charge>  (8) 
0

>  <Mult>  (8) 
1

$$$$
mol_26 466
     RDKit          3D

 24 23  0  0  0  0  0  0  0  0999 V2000
   -3.8497    0.0115   -0.4841 C   0  0  0  0  0  0  0  0  0  0  0  0
   -2.4235   -0.5004   -0.6076 C   0  0  0  0  0  0  0  0  0  0  0  0
   -1.4141    0.5231   -0.0880 C   0  0  0  0  0  0  0  0  0  0  0  0
    0.0202    0.0043   -0.2146 C   0  0  0  0  0  0  0  0  0  0  0  0
    1.0282    1.0295    0.3094 C   0  0  0  0  0  0  0  0  0  0  0  0
    2.4831    0.6049    0.1087 C   0  0  0  0  0  0  0  0  0  0  0  0
    2.8784   -0.6256    0.9156 C   0  0  0  0  0  0  0  0  0  0  0  0
    4.2697   -0.8750    0.7568 O   0  0  0  0  0  0  0  0  0  0  0  0
   -3.9880    0.9309   -1.0620 H   0  0  0  0  0  0  0  0  0  0  0  0
   -4.5547   -0.7359   -0.8612 H   0  0  0  0  0  0  0  0  0  0  0  0
   -4.1025    0.2205    0.5603 H   0  0  0  0  0  0  0  0  0  0  0  0
   -2.2136   -0.7300   -1.6588 H   0  0  0  0  0  0  0  0  0  0  0  0
   -2.3277   -1.4366   -0.0455 H   0  0  0  0  0  0  0  0  0  0  0  0
   -1.6304    0.7521    0.9626 H   0  0  0  0  0  0  0  0  0  0  0  0
   -1.5178    1.4589   -0.6507 H   0  0  0  0  0  0  0  0  0  0  0  0
    0.1125   -0.9331    0.3452 H   0  0  0  0  0  0  0  0  0  0  0  0
    0.2374   -0.2210   -1.2656 H   0  0  0  0  0  0  0  0  0  0  0  0
    0.8444    1.2195    1.3738 H   0  0  0  0  0  0  0  0  0  0  0  0
    0.8746    1.9823   -0.2124 H   0  0  0  0  0  0  0  0  0  0  0  0
    2.6803    0.4255   -0.9556 H   0  0  0  0  0  0  0  0  0  0  0  0
    3.1391    1.4380    0.3913 H   0  0  0  0  0  0  0  0  0  0  0  0
    2.3356   -1.5179    0.5910 H   0  0  0  0  0  0  0  0  0  0  0  0
    2.6842   -0.4718    1.9815 H   0  0  0  0  0  0  0  0  0  0  0  0
    4.4341   -1.0229   -0.1902 H   0  0  0  0  0  0  0  0  0  0  0  0
  1  2  1  0
  2  3  1  0
  3  4  1  0
  4  5  1  0
  5  6  1  0
  6  7  1  0
  7  8  1  0
  1  9  1  0
  1 10  1  0
  1 11  1  0
  2 12  1  0
  2 13  1  0
  3 14  1  0
  3 15  1  0
  4 16  1  0
  4 17  1  0
  5 18  1  0
  5 19  1  0
  6 20  1  0
  6 21  1  0
  7 22  1  0
  7 23  1  0
  8 24  1  0
M  END
>  <Energy>  (9) 
-1.6698746954141532

>  <Real charge>  (9) 
0

>  <Mult>  (9) 
1

$$$$
