mol_29 82
     RDKit          3D

 26 27  0  0  0  0  0  0  0  0999 V2000
    1.7671    2.8196   -1.6849 Cl  0  0  0  0  0  0  0  0  0  0  0  0
    0.2317    2.0611   -1.3676 C   0  0  0  0  0  0  0  0  0  0  0  0
   -1.1271    2.8741   -2.0930 Cl  0  0  0  0  0  0  0  0  0  0  0  0
    0.1054    0.9376   -0.6221 C   0  0  0  0  0  0  0  0  0  0  0  0
   -1.2321    0.3270   -0.4170 C   0  0  0  0  0  0  0  0  0  0  0  0
   -1.8177   -0.4618   -1.4180 C   0  0  0  0  0  0  0  0  0  0  0  0
   -3.0725   -1.0413   -1.2142 C   0  0  0  0  0  0  0  0  0  0  0  0
   -3.7418   -0.8374   -0.0090 C   0  0  0  0  0  0  0  0  0  0  0  0
   -5.2865   -1.5520    0.2416 Cl  0  0  0  0  0  0  0  0  0  0  0  0
   -3.1679   -0.0599    0.9951 C   0  0  0  0  0  0  0  0  0  0  0  0
   -1.9132    0.5208    0.7926 C   0  0  0  0  0  0  0  0  0  0  0  0
    1.3041    0.3134   -0.0080 C   0  0  0  0  0  0  0  0  0  0  0  0
    1.8792   -0.8239   -0.5915 C   0  0  0  0  0  0  0  0  0  0  0  0
    3.0013   -1.4216   -0.0120 C   0  0  0  0  0  0  0  0  0  0  0  0
    3.5481   -0.8860    1.1526 C   0  0  0  0  0  0  0  0  0  0  0  0
    4.9296   -1.6231    1.8651 Cl  0  0  0  0  0  0  0  0  0  0  0  0
    2.9826    0.2415    1.7449 C   0  0  0  0  0  0  0  0  0  0  0  0
    1.8602    0.8401    1.1670 C   0  0  0  0  0  0  0  0  0  0  0  0
   -1.3043   -0.6278   -2.3626 H   0  0  0  0  0  0  0  0  0  0  0  0
   -3.5204   -1.6479   -1.9968 H   0  0  0  0  0  0  0  0  0  0  0  0
   -3.6897    0.0975    1.9353 H   0  0  0  0  0  0  0  0  0  0  0  0
   -1.4750    1.1247    1.5839 H   0  0  0  0  0  0  0  0  0  0  0  0
    1.4607   -1.2514   -1.4999 H   0  0  0  0  0  0  0  0  0  0  0  0
    3.4419   -2.3018   -0.4727 H   0  0  0  0  0  0  0  0  0  0  0  0
    3.4092    0.6586    2.6532 H   0  0  0  0  0  0  0  0  0  0  0  0
    1.4270    1.7197    1.6380 H   0  0  0  0  0  0  0  0  0  0  0  0
  1  2  1  0
  2  3  1  0
  2  4  2  3
  4  5  1  0
  5  6  2  0
  6  7  1  0
  7  8  2  0
  8  9  1  0
  8 10  1  0
 10 11  2  0
  4 12  1  0
 12 13  2  0
 13 14  1  0
 14 15  2  0
 15 16  1  0
 15 17  1  0
 17 18  2  0
 11  5  1  0
 18 12  1  0
  6 19  1  0
  7 20  1  0
 10 21  1  0
 11 22  1  0
 13 23  1  0
 14 24  1  0
 17 25  1  0
 18 26  1  0
M  END
>  <Energy>  (1) 
54.50360470826184

>  <Real charge>  (1) 
0

>  <Mult>  (1) 
1

$$$$
