mol_591 37
     RDKit          3D

 13 13  0  0  0  0  0  0  0  0999 V2000
    2.1131   -1.3832    0.0040 O   0  0  0  0  0  0  0  0  0  0  0  0
    0.9513   -0.6626   -0.0012 C   0  0  0  0  0  0  0  0  0  0  0  0
   -0.2400   -1.3718   -0.1159 C   0  0  0  0  0  0  0  0  0  0  0  0
   -1.4530   -0.6814   -0.1260 C   0  0  0  0  0  0  0  0  0  0  0  0
   -1.4609    0.7110   -0.0213 C   0  0  0  0  0  0  0  0  0  0  0  0
   -2.9598    1.5563   -0.0344 Cl  0  0  0  0  0  0  0  0  0  0  0  0
   -0.2681    1.4244    0.0938 C   0  0  0  0  0  0  0  0  0  0  0  0
    0.9405    0.7312    0.1035 C   0  0  0  0  0  0  0  0  0  0  0  0
    2.4197    1.6057    0.2454 Cl  0  0  0  0  0  0  0  0  0  0  0  0
    2.8491   -0.7483    0.0897 H   0  0  0  0  0  0  0  0  0  0  0  0
   -0.2238   -2.4554   -0.1969 H   0  0  0  0  0  0  0  0  0  0  0  0
   -2.3855   -1.2332   -0.2155 H   0  0  0  0  0  0  0  0  0  0  0  0
   -0.2825    2.5074    0.1749 H   0  0  0  0  0  0  0  0  0  0  0  0
  1  2  1  0
  2  3  2  0
  3  4  1  0
  4  5  2  0
  5  6  1  0
  5  7  1  0
  7  8  2  0
  8  9  1  0
  8  2  1  0
  1 10  1  0
  3 11  1  0
  4 12  1  0
  7 13  1  0
M  END
>  <Energy>  (1) 
9.63057899523646

>  <Real charge>  (1) 
0

>  <Mult>  (1) 
1

$$$$
