mol_652 109
     RDKit          3D

 22 21  0  0  0  0  0  0  0  0999 V2000
   -3.3110    0.5276    0.7274 C   0  0  0  0  0  0  0  0  0  0  0  0
   -1.9473    0.5087    0.0649 C   0  0  0  0  0  0  0  0  0  0  0  0
   -1.3003   -0.7130    0.4079 O   0  0  0  0  0  0  0  0  0  0  0  0
   -0.0266   -0.8451   -0.2264 C   0  0  0  0  0  0  0  0  0  0  0  0
    0.5019   -2.2280    0.1312 C   0  0  0  0  0  0  0  0  0  0  0  0
    0.8708    0.1552    0.2487 O   0  0  0  0  0  0  0  0  0  0  0  0
    1.9312    0.4309   -0.6604 C   0  0  0  0  0  0  0  0  0  0  0  0
    2.8086    1.5088   -0.0546 C   0  0  0  0  0  0  0  0  0  0  0  0
   -3.9123   -0.3256    0.3966 H   0  0  0  0  0  0  0  0  0  0  0  0
   -3.8473    1.4507    0.4902 H   0  0  0  0  0  0  0  0  0  0  0  0
   -3.2125    0.4455    1.8149 H   0  0  0  0  0  0  0  0  0  0  0  0
   -2.0636    0.5770   -1.0223 H   0  0  0  0  0  0  0  0  0  0  0  0
   -1.3568    1.3609    0.4177 H   0  0  0  0  0  0  0  0  0  0  0  0
   -0.1660   -0.7696   -1.3125 H   0  0  0  0  0  0  0  0  0  0  0  0
    0.6622   -2.3093    1.2124 H   0  0  0  0  0  0  0  0  0  0  0  0
    1.4584   -2.4350   -0.3568 H   0  0  0  0  0  0  0  0  0  0  0  0
   -0.2154   -3.0048   -0.1528 H   0  0  0  0  0  0  0  0  0  0  0  0
    2.5259   -0.4705   -0.8380 H   0  0  0  0  0  0  0  0  0  0  0  0
    1.5196    0.7830   -1.6126 H   0  0  0  0  0  0  0  0  0  0  0  0
    2.2265    2.4156    0.1402 H   0  0  0  0  0  0  0  0  0  0  0  0
    3.6378    1.7582   -0.7226 H   0  0  0  0  0  0  0  0  0  0  0  0
    3.2161    1.1789    0.9068 H   0  0  0  0  0  0  0  0  0  0  0  0
  1  2  1  0
  2  3  1  0
  3  4  1  0
  4  5  1  0
  4  6  1  0
  6  7  1  0
  7  8  1  0
  1  9  1  0
  1 10  1  0
  1 11  1  0
  2 12  1  0
  2 13  1  0
  4 14  1  0
  5 15  1  0
  5 16  1  0
  5 17  1  0
  7 18  1  0
  7 19  1  0
  8 20  1  0
  8 21  1  0
  8 22  1  0
M  END
>  <Energy>  (1) 
-8.808386310860307

>  <Real charge>  (1) 
0

>  <Mult>  (1) 
1

$$$$
