mol_153 220
     RDKit          3D

 21 20  0  0  0  0  0  0  0  0999 V2000
    3.4071   -0.3264   -0.1662 C   0  0  0  0  0  0  0  0  0  0  0  0
    2.1219    0.4857   -0.1812 C   0  0  0  0  0  0  0  0  0  0  0  0
    0.8981   -0.3980    0.0590 C   0  0  0  0  0  0  0  0  0  0  0  0
   -0.3925    0.4226    0.0432 C   0  0  0  0  0  0  0  0  0  0  0  0
   -1.6153   -0.4601    0.2831 C   0  0  0  0  0  0  0  0  0  0  0  0
   -2.9043    0.3494    0.2689 C   0  0  0  0  0  0  0  0  0  0  0  0
   -3.9994   -0.5267    0.4969 O   0  0  0  0  0  0  0  0  0  0  0  0
    4.2692    0.3252   -0.3398 H   0  0  0  0  0  0  0  0  0  0  0  0
    3.5459   -0.8234    0.7992 H   0  0  0  0  0  0  0  0  0  0  0  0
    3.3967   -1.0918   -0.9487 H   0  0  0  0  0  0  0  0  0  0  0  0
    2.1781    1.2620    0.5908 H   0  0  0  0  0  0  0  0  0  0  0  0
    2.0297    0.9951   -1.1475 H   0  0  0  0  0  0  0  0  0  0  0  0
    0.8489   -1.1752   -0.7134 H   0  0  0  0  0  0  0  0  0  0  0  0
    0.9973   -0.9083    1.0248 H   0  0  0  0  0  0  0  0  0  0  0  0
   -0.3433    1.1997    0.8157 H   0  0  0  0  0  0  0  0  0  0  0  0
   -0.4917    0.9328   -0.9227 H   0  0  0  0  0  0  0  0  0  0  0  0
   -1.6719   -1.2464   -0.4801 H   0  0  0  0  0  0  0  0  0  0  0  0
   -1.5247   -0.9816    1.2442 H   0  0  0  0  0  0  0  0  0  0  0  0
   -3.0467    0.8401   -0.6992 H   0  0  0  0  0  0  0  0  0  0  0  0
   -2.8968    1.1097    1.0564 H   0  0  0  0  0  0  0  0  0  0  0  0
   -4.8063    0.0158    0.4825 H   0  0  0  0  0  0  0  0  0  0  0  0
  1  2  1  0
  2  3  1  0
  3  4  1  0
  4  5  1  0
  5  6  1  0
  6  7  1  0
  1  8  1  0
  1  9  1  0
  1 10  1  0
  2 11  1  0
  2 12  1  0
  3 13  1  0
  3 14  1  0
  4 15  1  0
  4 16  1  0
  5 17  1  0
  5 18  1  0
  6 19  1  0
  6 20  1  0
  7 21  1  0
M  END
>  <Energy>  (1) 
-2.4169603891568845

>  <Real charge>  (1) 
0

>  <Mult>  (1) 
1

$$$$
mol_153 381
     RDKit          3D

 21 20  0  0  0  0  0  0  0  0999 V2000
    3.3585    0.4435   -0.0601 C   0  0  0  0  0  0  0  0  0  0  0  0
    1.9167    0.8706    0.1638 C   0  0  0  0  0  0  0  0  0  0  0  0
    0.9403   -0.2576   -0.1679 C   0  0  0  0  0  0  0  0  0  0  0  0
   -0.5093    0.1761    0.0590 C   0  0  0  0  0  0  0  0  0  0  0  0
   -1.4861   -0.9560   -0.2724 C   0  0  0  0  0  0  0  0  0  0  0  0
   -2.9356   -0.5585   -0.0214 C   0  0  0  0  0  0  0  0  0  0  0  0
   -3.3053    0.5013   -0.8917 O   0  0  0  0  0  0  0  0  0  0  0  0
    3.6174   -0.4110    0.5732 H   0  0  0  0  0  0  0  0  0  0  0  0
    4.0394    1.2652    0.1831 H   0  0  0  0  0  0  0  0  0  0  0  0
    3.5263    0.1610   -1.1043 H   0  0  0  0  0  0  0  0  0  0  0  0
    1.7001    1.7460   -0.4595 H   0  0  0  0  0  0  0  0  0  0  0  0
    1.7907    1.1771    1.2088 H   0  0  0  0  0  0  0  0  0  0  0  0
    1.1642   -1.1321    0.4553 H   0  0  0  0  0  0  0  0  0  0  0  0
    1.0731   -0.5631   -1.2129 H   0  0  0  0  0  0  0  0  0  0  0  0
   -0.7285    1.0524   -0.5625 H   0  0  0  0  0  0  0  0  0  0  0  0
   -0.6419    0.4797    1.1046 H   0  0  0  0  0  0  0  0  0  0  0  0
   -1.3639   -1.2320   -1.3268 H   0  0  0  0  0  0  0  0  0  0  0  0
   -1.2472   -1.8382    0.3328 H   0  0  0  0  0  0  0  0  0  0  0  0
   -3.5960   -1.4094   -0.2162 H   0  0  0  0  0  0  0  0  0  0  0  0
   -3.0791   -0.2321    1.0136 H   0  0  0  0  0  0  0  0  0  0  0  0
   -4.2338    0.7173   -0.7001 H   0  0  0  0  0  0  0  0  0  0  0  0
  1  2  1  0
  2  3  1  0
  3  4  1  0
  4  5  1  0
  5  6  1  0
  6  7  1  0
  1  8  1  0
  1  9  1  0
  1 10  1  0
  2 11  1  0
  2 12  1  0
  3 13  1  0
  3 14  1  0
  4 15  1  0
  4 16  1  0
  5 17  1  0
  5 18  1  0
  6 19  1  0
  6 20  1  0
  7 21  1  0
M  END
>  <Energy>  (2) 
-2.0951114916059623

>  <Real charge>  (2) 
0

>  <Mult>  (2) 
1

$$$$
mol_153 4
     RDKit          3D

 21 20  0  0  0  0  0  0  0  0999 V2000
   -3.0526    0.8589   -0.2305 C   0  0  0  0  0  0  0  0  0  0  0  0
   -2.0789   -0.2784    0.0343 C   0  0  0  0  0  0  0  0  0  0  0  0
   -0.6302    0.2114    0.0285 C   0  0  0  0  0  0  0  0  0  0  0  0
    0.3442   -0.9387    0.2922 C   0  0  0  0  0  0  0  0  0  0  0  0
    1.8001   -0.4856    0.4034 C   0  0  0  0  0  0  0  0  0  0  0  0
    2.3667    0.0782   -0.8927 C   0  0  0  0  0  0  0  0  0  0  0  0
    3.7449    0.3702   -0.6989 O   0  0  0  0  0  0  0  0  0  0  0  0
   -2.8656    1.3162   -1.2073 H   0  0  0  0  0  0  0  0  0  0  0  0
   -2.9656    1.6361    0.5354 H   0  0  0  0  0  0  0  0  0  0  0  0
   -4.0818    0.4866   -0.2213 H   0  0  0  0  0  0  0  0  0  0  0  0
   -2.2132   -1.0524   -0.7303 H   0  0  0  0  0  0  0  0  0  0  0  0
   -2.3145   -0.7345    1.0029 H   0  0  0  0  0  0  0  0  0  0  0  0
   -0.4123    0.6735   -0.9409 H   0  0  0  0  0  0  0  0  0  0  0  0
   -0.5015    0.9855    0.7945 H   0  0  0  0  0  0  0  0  0  0  0  0
    0.2530   -1.6909   -0.5008 H   0  0  0  0  0  0  0  0  0  0  0  0
    0.0675   -1.4347    1.2309 H   0  0  0  0  0  0  0  0  0  0  0  0
    1.9051    0.2580    1.2034 H   0  0  0  0  0  0  0  0  0  0  0  0
    2.4147   -1.3395    0.7161 H   0  0  0  0  0  0  0  0  0  0  0  0
    2.2770   -0.6478   -1.7068 H   0  0  0  0  0  0  0  0  0  0  0  0
    1.8609    1.0041   -1.1805 H   0  0  0  0  0  0  0  0  0  0  0  0
    4.0822    0.7238   -1.5395 H   0  0  0  0  0  0  0  0  0  0  0  0
  1  2  1  0
  2  3  1  0
  3  4  1  0
  4  5  1  0
  5  6  1  0
  6  7  1  0
  1  8  1  0
  1  9  1  0
  1 10  1  0
  2 11  1  0
  2 12  1  0
  3 13  1  0
  3 14  1  0
  4 15  1  0
  4 16  1  0
  5 17  1  0
  5 18  1  0
  6 19  1  0
  6 20  1  0
  7 21  1  0
M  END
>  <Energy>  (3) 
-1.614999973990744

>  <Real charge>  (3) 
0

>  <Mult>  (3) 
1

$$$$
mol_153 172
     RDKit          3D

 21 20  0  0  0  0  0  0  0  0999 V2000
    3.3192    0.1506   -0.1076 C   0  0  0  0  0  0  0  0  0  0  0  0
    1.9241    0.7267    0.0749 C   0  0  0  0  0  0  0  0  0  0  0  0
    0.8527   -0.3593   -0.0207 C   0  0  0  0  0  0  0  0  0  0  0  0
   -0.5497    0.2245    0.1640 C   0  0  0  0  0  0  0  0  0  0  0  0
   -1.6213   -0.8651    0.0666 C   0  0  0  0  0  0  0  0  0  0  0  0
   -3.0272   -0.3329    0.3222 C   0  0  0  0  0  0  0  0  0  0  0  0
   -3.4282    0.5651   -0.7024 O   0  0  0  0  0  0  0  0  0  0  0  0
    3.5392   -0.5958    0.6623 H   0  0  0  0  0  0  0  0  0  0  0  0
    3.4217   -0.3259   -1.0878 H   0  0  0  0  0  0  0  0  0  0  0  0
    4.0695    0.9442   -0.0356 H   0  0  0  0  0  0  0  0  0  0  0  0
    1.8650    1.2234    1.0504 H   0  0  0  0  0  0  0  0  0  0  0  0
    1.7483    1.4919   -0.6901 H   0  0  0  0  0  0  0  0  0  0  0  0
    1.0363   -1.1241    0.7437 H   0  0  0  0  0  0  0  0  0  0  0  0
    0.9184   -0.8555   -0.9967 H   0  0  0  0  0  0  0  0  0  0  0  0
   -0.6159    0.7179    1.1412 H   0  0  0  0  0  0  0  0  0  0  0  0
   -0.7245    0.9913   -0.5995 H   0  0  0  0  0  0  0  0  0  0  0  0
   -1.5801   -1.3138   -0.9333 H   0  0  0  0  0  0  0  0  0  0  0  0
   -1.4053   -1.6555    0.7949 H   0  0  0  0  0  0  0  0  0  0  0  0
   -3.0961    0.1768    1.2888 H   0  0  0  0  0  0  0  0  0  0  0  0
   -3.7397   -1.1636    0.3288 H   0  0  0  0  0  0  0  0  0  0  0  0
   -2.9066    1.3791   -0.6037 H   0  0  0  0  0  0  0  0  0  0  0  0
  1  2  1  0
  2  3  1  0
  3  4  1  0
  4  5  1  0
  5  6  1  0
  6  7  1  0
  1  8  1  0
  1  9  1  0
  1 10  1  0
  2 11  1  0
  2 12  1  0
  3 13  1  0
  3 14  1  0
  4 15  1  0
  4 16  1  0
  5 17  1  0
  5 18  1  0
  6 19  1  0
  6 20  1  0
  7 21  1  0
M  END
>  <Energy>  (4) 
-1.6049688077606752

>  <Real charge>  (4) 
0

>  <Mult>  (4) 
1

$$$$
mol_153 120
     RDKit          3D

 21 20  0  0  0  0  0  0  0  0999 V2000
    2.8724    0.3830   -0.6916 C   0  0  0  0  0  0  0  0  0  0  0  0
    2.2382   -0.5170    0.3576 C   0  0  0  0  0  0  0  0  0  0  0  0
    0.8285   -0.9851   -0.0100 C   0  0  0  0  0  0  0  0  0  0  0  0
   -0.1923    0.1534   -0.0693 C   0  0  0  0  0  0  0  0  0  0  0  0
   -1.5998   -0.3790   -0.3344 C   0  0  0  0  0  0  0  0  0  0  0  0
   -2.6234    0.7458   -0.3985 C   0  0  0  0  0  0  0  0  0  0  0  0
   -3.9058    0.1863   -0.6459 O   0  0  0  0  0  0  0  0  0  0  0  0
    2.3431    1.3366   -0.7755 H   0  0  0  0  0  0  0  0  0  0  0  0
    2.8755   -0.0998   -1.6739 H   0  0  0  0  0  0  0  0  0  0  0  0
    3.9096    0.6035   -0.4193 H   0  0  0  0  0  0  0  0  0  0  0  0
    2.8741   -1.4009    0.4878 H   0  0  0  0  0  0  0  0  0  0  0  0
    2.2190    0.0040    1.3218 H   0  0  0  0  0  0  0  0  0  0  0  0
    0.5051   -1.7179    0.7397 H   0  0  0  0  0  0  0  0  0  0  0  0
    0.8547   -1.5095   -0.9731 H   0  0  0  0  0  0  0  0  0  0  0  0
   -0.1818    0.7065    0.8775 H   0  0  0  0  0  0  0  0  0  0  0  0
    0.0784    0.8597   -0.8621 H   0  0  0  0  0  0  0  0  0  0  0  0
   -1.8912   -1.0901    0.4487 H   0  0  0  0  0  0  0  0  0  0  0  0
   -1.6212   -0.9437   -1.2749 H   0  0  0  0  0  0  0  0  0  0  0  0
   -2.6597    1.2952    0.5476 H   0  0  0  0  0  0  0  0  0  0  0  0
   -2.3863    1.4441   -1.2074 H   0  0  0  0  0  0  0  0  0  0  0  0
   -4.5371    0.9250   -0.6815 H   0  0  0  0  0  0  0  0  0  0  0  0
  1  2  1  0
  2  3  1  0
  3  4  1  0
  4  5  1  0
  5  6  1  0
  6  7  1  0
  1  8  1  0
  1  9  1  0
  1 10  1  0
  2 11  1  0
  2 12  1  0
  3 13  1  0
  3 14  1  0
  4 15  1  0
  4 16  1  0
  5 17  1  0
  5 18  1  0
  6 19  1  0
  6 20  1  0
  7 21  1  0
M  END
>  <Energy>  (5) 
-1.5905868695016303

>  <Real charge>  (5) 
0

>  <Mult>  (5) 
1

$$$$
mol_153 97
     RDKit          3D

 21 20  0  0  0  0  0  0  0  0999 V2000
   -3.2038   -0.4653    0.0222 C   0  0  0  0  0  0  0  0  0  0  0  0
   -1.7005   -0.5590    0.2352 C   0  0  0  0  0  0  0  0  0  0  0  0
   -1.0212    0.7932    0.0147 C   0  0  0  0  0  0  0  0  0  0  0  0
    0.4779    0.7792    0.3264 C   0  0  0  0  0  0  0  0  0  0  0  0
    1.2883   -0.0989   -0.6257 C   0  0  0  0  0  0  0  0  0  0  0  0
    2.7821    0.0066   -0.3482 C   0  0  0  0  0  0  0  0  0  0  0  0
    3.4790   -0.8313   -1.2599 O   0  0  0  0  0  0  0  0  0  0  0  0
   -3.4357   -0.1392   -0.9968 H   0  0  0  0  0  0  0  0  0  0  0  0
   -3.6705   -1.4425    0.1809 H   0  0  0  0  0  0  0  0  0  0  0  0
   -3.6561    0.2445    0.7221 H   0  0  0  0  0  0  0  0  0  0  0  0
   -1.5035   -0.9137    1.2534 H   0  0  0  0  0  0  0  0  0  0  0  0
   -1.2956   -1.3063   -0.4553 H   0  0  0  0  0  0  0  0  0  0  0  0
   -1.4970    1.5419    0.6603 H   0  0  0  0  0  0  0  0  0  0  0  0
   -1.1789    1.1232   -1.0194 H   0  0  0  0  0  0  0  0  0  0  0  0
    0.6355    0.4488    1.3603 H   0  0  0  0  0  0  0  0  0  0  0  0
    0.8487    1.8100    0.2648 H   0  0  0  0  0  0  0  0  0  0  0  0
    0.9860   -1.1489   -0.5385 H   0  0  0  0  0  0  0  0  0  0  0  0
    1.0917    0.1866   -1.6665 H   0  0  0  0  0  0  0  0  0  0  0  0
    3.1332    1.0347   -0.4827 H   0  0  0  0  0  0  0  0  0  0  0  0
    3.0137   -0.3190    0.6709 H   0  0  0  0  0  0  0  0  0  0  0  0
    4.4266   -0.7444   -1.0598 H   0  0  0  0  0  0  0  0  0  0  0  0
  1  2  1  0
  2  3  1  0
  3  4  1  0
  4  5  1  0
  5  6  1  0
  6  7  1  0
  1  8  1  0
  1  9  1  0
  1 10  1  0
  2 11  1  0
  2 12  1  0
  3 13  1  0
  3 14  1  0
  4 15  1  0
  4 16  1  0
  5 17  1  0
  5 18  1  0
  6 19  1  0
  6 20  1  0
  7 21  1  0
M  END
>  <Energy>  (6) 
-1.5403012695466538

>  <Real charge>  (6) 
0

>  <Mult>  (6) 
1

$$$$
mol_153 175
     RDKit          3D

 21 20  0  0  0  0  0  0  0  0999 V2000
    3.0381    0.7672    0.1984 C   0  0  0  0  0  0  0  0  0  0  0  0
    2.0662   -0.2091   -0.4452 C   0  0  0  0  0  0  0  0  0  0  0  0
    0.6281    0.0536    0.0040 C   0  0  0  0  0  0  0  0  0  0  0  0
   -0.3446   -0.9302   -0.6499 C   0  0  0  0  0  0  0  0  0  0  0  0
   -1.7827   -0.7797   -0.1533 C   0  0  0  0  0  0  0  0  0  0  0  0
   -2.4237    0.5506   -0.5286 C   0  0  0  0  0  0  0  0  0  0  0  0
   -3.7887    0.5535   -0.1288 O   0  0  0  0  0  0  0  0  0  0  0  0
    2.7940    1.7995   -0.0721 H   0  0  0  0  0  0  0  0  0  0  0  0
    4.0596    0.5610   -0.1360 H   0  0  0  0  0  0  0  0  0  0  0  0
    3.0141    0.6827    1.2895 H   0  0  0  0  0  0  0  0  0  0  0  0
    2.3581   -1.2323   -0.1817 H   0  0  0  0  0  0  0  0  0  0  0  0
    2.1375   -0.1215   -1.5356 H   0  0  0  0  0  0  0  0  0  0  0  0
    0.5626   -0.0346    1.0951 H   0  0  0  0  0  0  0  0  0  0  0  0
    0.3539    1.0821   -0.2562 H   0  0  0  0  0  0  0  0  0  0  0  0
   -0.3175   -0.8092   -1.7396 H   0  0  0  0  0  0  0  0  0  0  0  0
   -0.0147   -1.9548   -0.4379 H   0  0  0  0  0  0  0  0  0  0  0  0
   -1.8219   -0.9127    0.9350 H   0  0  0  0  0  0  0  0  0  0  0  0
   -2.3897   -1.5938   -0.5694 H   0  0  0  0  0  0  0  0  0  0  0  0
   -2.3904    0.7079   -1.6110 H   0  0  0  0  0  0  0  0  0  0  0  0
   -1.9268    1.3945   -0.0416 H   0  0  0  0  0  0  0  0  0  0  0  0
   -3.8115    0.4255    0.8350 H   0  0  0  0  0  0  0  0  0  0  0  0
  1  2  1  0
  2  3  1  0
  3  4  1  0
  4  5  1  0
  5  6  1  0
  6  7  1  0
  1  8  1  0
  1  9  1  0
  1 10  1  0
  2 11  1  0
  2 12  1  0
  3 13  1  0
  3 14  1  0
  4 15  1  0
  4 16  1  0
  5 17  1  0
  5 18  1  0
  6 19  1  0
  6 20  1  0
  7 21  1  0
M  END
>  <Energy>  (7) 
-1.4617139748671288

>  <Real charge>  (7) 
0

>  <Mult>  (7) 
1

$$$$
mol_153 136
     RDKit          3D

 21 20  0  0  0  0  0  0  0  0999 V2000
    2.7425    0.0114   -0.9395 C   0  0  0  0  0  0  0  0  0  0  0  0
    2.2729    0.3718    0.4614 C   0  0  0  0  0  0  0  0  0  0  0  0
    0.8101    0.8172    0.5201 C   0  0  0  0  0  0  0  0  0  0  0  0
   -0.1774   -0.2955    0.1616 C   0  0  0  0  0  0  0  0  0  0  0  0
   -1.6222    0.1692    0.3385 C   0  0  0  0  0  0  0  0  0  0  0  0
   -2.6136   -0.9305   -0.0189 C   0  0  0  0  0  0  0  0  0  0  0  0
   -3.9419   -0.4642    0.1765 O   0  0  0  0  0  0  0  0  0  0  0  0
    2.5673    0.8362   -1.6374 H   0  0  0  0  0  0  0  0  0  0  0  0
    3.8160   -0.2034   -0.9317 H   0  0  0  0  0  0  0  0  0  0  0  0
    2.2305   -0.8780   -1.3181 H   0  0  0  0  0  0  0  0  0  0  0  0
    2.4302   -0.4825    1.1301 H   0  0  0  0  0  0  0  0  0  0  0  0
    2.8995    1.1888    0.8388 H   0  0  0  0  0  0  0  0  0  0  0  0
    0.6002    1.1686    1.5379 H   0  0  0  0  0  0  0  0  0  0  0  0
    0.6599    1.6747   -0.1472 H   0  0  0  0  0  0  0  0  0  0  0  0
    0.0071   -1.1698    0.7974 H   0  0  0  0  0  0  0  0  0  0  0  0
   -0.0274   -0.6106   -0.8771 H   0  0  0  0  0  0  0  0  0  0  0  0
   -1.7952    0.4901    1.3733 H   0  0  0  0  0  0  0  0  0  0  0  0
   -1.8151    1.0509   -0.2853 H   0  0  0  0  0  0  0  0  0  0  0  0
   -2.5051   -1.2416   -1.0629 H   0  0  0  0  0  0  0  0  0  0  0  0
   -2.4678   -1.8086    0.6177 H   0  0  0  0  0  0  0  0  0  0  0  0
   -4.0704    0.3056   -0.4035 H   0  0  0  0  0  0  0  0  0  0  0  0
  1  2  1  0
  2  3  1  0
  3  4  1  0
  4  5  1  0
  5  6  1  0
  6  7  1  0
  1  8  1  0
  1  9  1  0
  1 10  1  0
  2 11  1  0
  2 12  1  0
  3 13  1  0
  3 14  1  0
  4 15  1  0
  4 16  1  0
  5 17  1  0
  5 18  1  0
  6 19  1  0
  6 20  1  0
  7 21  1  0
M  END
>  <Energy>  (8) 
-1.424015676631704

>  <Real charge>  (8) 
0

>  <Mult>  (8) 
1

$$$$
