mol_303 263
     RDKit          3D

 19 19  0  0  0  0  0  0  0  0999 V2000
    3.4354   -0.3249   -0.3948 N   0  0  0  0  0  0  0  0  0  0  0  0
    2.0696   -0.2898   -0.0934 C   0  0  0  0  0  0  0  0  0  0  0  0
    1.5345    0.7886    0.6189 C   0  0  0  0  0  0  0  0  0  0  0  0
    0.1564    0.8974    0.8240 C   0  0  0  0  0  0  0  0  0  0  0  0
   -0.6978   -0.0553    0.2664 C   0  0  0  0  0  0  0  0  0  0  0  0
   -0.1843   -1.1129   -0.4860 C   0  0  0  0  0  0  0  0  0  0  0  0
    1.1959   -1.2095   -0.6831 C   0  0  0  0  0  0  0  0  0  0  0  0
   -2.4396    0.0592    0.5435 S   0  0  0  0  0  6  0  0  0  0  0  0
   -2.9396    0.9926   -0.7588 N   0  0  0  0  0  0  0  0  0  0  0  0
   -3.0390   -1.2411    0.3534 O   0  0  0  0  0  0  0  0  0  0  0  0
   -2.6832    0.8586    1.7216 O   0  0  0  0  0  0  0  0  0  0  0  0
    3.7836   -1.2507   -0.6238 H   0  0  0  0  0  0  0  0  0  0  0  0
    4.0205    0.1475    0.2873 H   0  0  0  0  0  0  0  0  0  0  0  0
    2.1908    1.5542    1.0254 H   0  0  0  0  0  0  0  0  0  0  0  0
   -0.2379    1.7287    1.4036 H   0  0  0  0  0  0  0  0  0  0  0  0
   -0.8449   -1.8534   -0.9306 H   0  0  0  0  0  0  0  0  0  0  0  0
    1.5859   -2.0150   -1.3004 H   0  0  0  0  0  0  0  0  0  0  0  0
   -3.5734    0.4535   -1.3489 H   0  0  0  0  0  0  0  0  0  0  0  0
   -3.3330    1.8723   -0.4243 H   0  0  0  0  0  0  0  0  0  0  0  0
  1  2  1  0
  2  3  2  0
  3  4  1  0
  4  5  2  0
  5  6  1  0
  6  7  2  0
  5  8  1  0
  8  9  1  0
  8 10  2  0
  8 11  2  0
  7  2  1  0
  1 12  1  0
  1 13  1  0
  3 14  1  0
  4 15  1  0
  6 16  1  0
  7 17  1  0
  9 18  1  0
  9 19  1  0
M  END
>  <Energy>  (1) 
-68.65706957852784

>  <Real charge>  (1) 
0

>  <Mult>  (1) 
1

$$$$
