mol_234 848
     RDKit          3D

 26 25  0  0  0  0  0  0  0  0999 V2000
   -1.3260    2.3460    1.3493 O   0  0  0  0  0  0  0  0  0  0  0  0
   -1.9942    1.0950    1.5119 C   0  0  0  0  0  0  0  0  0  0  0  0
   -2.0493    0.3585    0.1745 C   0  0  0  0  0  0  0  0  0  0  0  0
   -2.7961    1.1852   -0.7460 O   0  0  0  0  0  0  0  0  0  0  0  0
   -0.6664    0.0948   -0.4576 C   0  0  0  0  0  0  0  0  0  0  0  0
   -0.9098   -0.5766   -1.7155 O   0  0  0  0  0  0  0  0  0  0  0  0
    0.2585   -0.7761    0.4034 C   0  0  0  0  0  0  0  0  0  0  0  0
   -0.4203   -2.0258    0.6585 O   0  0  0  0  0  0  0  0  0  0  0  0
    1.6012   -1.1185   -0.2758 C   0  0  0  0  0  0  0  0  0  0  0  0
    2.3202   -1.9715    0.6437 O   0  0  0  0  0  0  0  0  0  0  0  0
    2.4743    0.0953   -0.5963 C   0  0  0  0  0  0  0  0  0  0  0  0
    2.7756    0.7754    0.6223 O   0  0  0  0  0  0  0  0  0  0  0  0
   -1.8130    2.7945    0.6288 H   0  0  0  0  0  0  0  0  0  0  0  0
   -3.0057    1.3129    1.8710 H   0  0  0  0  0  0  0  0  0  0  0  0
   -1.4755    0.5175    2.2811 H   0  0  0  0  0  0  0  0  0  0  0  0
   -2.6149   -0.5738    0.2808 H   0  0  0  0  0  0  0  0  0  0  0  0
   -2.6278    0.7949   -1.6281 H   0  0  0  0  0  0  0  0  0  0  0  0
   -0.1913    1.0485   -0.7084 H   0  0  0  0  0  0  0  0  0  0  0  0
   -1.1488   -1.4953   -1.4709 H   0  0  0  0  0  0  0  0  0  0  0  0
    0.4416   -0.3153    1.3796 H   0  0  0  0  0  0  0  0  0  0  0  0
    0.2807   -2.6224    0.9990 H   0  0  0  0  0  0  0  0  0  0  0  0
    1.4339   -1.7151   -1.1789 H   0  0  0  0  0  0  0  0  0  0  0  0
    2.7565   -1.3562    1.2699 H   0  0  0  0  0  0  0  0  0  0  0  0
    1.9853    0.7865   -1.2875 H   0  0  0  0  0  0  0  0  0  0  0  0
    3.4256   -0.2296   -1.0299 H   0  0  0  0  0  0  0  0  0  0  0  0
    3.2859    1.5713    0.3850 H   0  0  0  0  0  0  0  0  0  0  0  0
  1  2  1  0
  2  3  1  0
  3  4  1  0
  3  5  1  0
  5  6  1  0
  5  7  1  0
  7  8  1  0
  7  9  1  0
  9 10  1  0
  9 11  1  0
 11 12  1  0
  1 13  1  0
  2 14  1  0
  2 15  1  0
  3 16  1  0
  4 17  1  0
  5 18  1  0
  6 19  1  0
  7 20  1  0
  8 21  1  0
  9 22  1  0
 10 23  1  0
 11 24  1  0
 11 25  1  0
 12 26  1  0
M  END
>  <Energy>  (1) 
85.99431391683294

>  <Real charge>  (1) 
0

>  <Mult>  (1) 
1

$$$$
mol_234 103
     RDKit          3D

 26 25  0  0  0  0  0  0  0  0999 V2000
   -1.4195    2.4494   -0.8710 O   0  0  0  0  0  0  0  0  0  0  0  0
   -2.1544    1.2557   -1.1483 C   0  0  0  0  0  0  0  0  0  0  0  0
   -2.1247    0.3356    0.0708 C   0  0  0  0  0  0  0  0  0  0  0  0
   -2.8158    1.0119    1.1440 O   0  0  0  0  0  0  0  0  0  0  0  0
   -0.7049    0.0095    0.5768 C   0  0  0  0  0  0  0  0  0  0  0  0
   -0.8818   -0.8336    1.7398 O   0  0  0  0  0  0  0  0  0  0  0  0
    0.1796   -0.6889   -0.4786 C   0  0  0  0  0  0  0  0  0  0  0  0
   -0.4492   -1.9288   -0.8438 O   0  0  0  0  0  0  0  0  0  0  0  0
    1.6065   -1.0029    0.0112 C   0  0  0  0  0  0  0  0  0  0  0  0
    1.5506   -1.7100    1.2677 O   0  0  0  0  0  0  0  0  0  0  0  0
    2.4701    0.2469    0.1981 C   0  0  0  0  0  0  0  0  0  0  0  0
    3.7588   -0.1742    0.6540 O   0  0  0  0  0  0  0  0  0  0  0  0
   -1.8563    2.8262   -0.0801 H   0  0  0  0  0  0  0  0  0  0  0  0
   -3.1820    1.5522   -1.3841 H   0  0  0  0  0  0  0  0  0  0  0  0
   -1.7244    0.7803   -2.0335 H   0  0  0  0  0  0  0  0  0  0  0  0
   -2.6896   -0.5808   -0.1335 H   0  0  0  0  0  0  0  0  0  0  0  0
   -2.6477    0.4471    1.9274 H   0  0  0  0  0  0  0  0  0  0  0  0
   -0.2262    0.9256    0.9387 H   0  0  0  0  0  0  0  0  0  0  0  0
   -0.0018   -1.2295    1.9321 H   0  0  0  0  0  0  0  0  0  0  0  0
    0.2508   -0.0855   -1.3885 H   0  0  0  0  0  0  0  0  0  0  0  0
   -0.4810   -2.4599   -0.0224 H   0  0  0  0  0  0  0  0  0  0  0  0
    2.0949   -1.6890   -0.6914 H   0  0  0  0  0  0  0  0  0  0  0  0
    2.4923   -1.7879    1.5357 H   0  0  0  0  0  0  0  0  0  0  0  0
    2.5865    0.7936   -0.7423 H   0  0  0  0  0  0  0  0  0  0  0  0
    2.0602    0.9100    0.9650 H   0  0  0  0  0  0  0  0  0  0  0  0
    4.3088    0.6270    0.7261 H   0  0  0  0  0  0  0  0  0  0  0  0
  1  2  1  0
  2  3  1  0
  3  4  1  0
  3  5  1  0
  5  6  1  0
  5  7  1  0
  7  8  1  0
  7  9  1  0
  9 10  1  0
  9 11  1  0
 11 12  1  0
  1 13  1  0
  2 14  1  0
  2 15  1  0
  3 16  1  0
  4 17  1  0
  5 18  1  0
  6 19  1  0
  7 20  1  0
  8 21  1  0
  9 22  1  0
 10 23  1  0
 11 24  1  0
 11 25  1  0
 12 26  1  0
M  END
>  <Energy>  (2) 
86.23912180232055

>  <Real charge>  (2) 
0

>  <Mult>  (2) 
1

$$$$
mol_234 956
     RDKit          3D

 26 25  0  0  0  0  0  0  0  0999 V2000
   -3.7470    0.4034    1.9470 O   0  0  0  0  0  0  0  0  0  0  0  0
   -2.7033   -0.4049    1.4000 C   0  0  0  0  0  0  0  0  0  0  0  0
   -1.6509    0.5030    0.7576 C   0  0  0  0  0  0  0  0  0  0  0  0
   -2.3175    1.2509   -0.2802 O   0  0  0  0  0  0  0  0  0  0  0  0
   -0.4784   -0.3049    0.1666 C   0  0  0  0  0  0  0  0  0  0  0  0
   -0.9616   -1.1066   -0.9210 O   0  0  0  0  0  0  0  0  0  0  0  0
    0.6560    0.6065   -0.3420 C   0  0  0  0  0  0  0  0  0  0  0  0
    0.1111    1.6237   -1.2165 O   0  0  0  0  0  0  0  0  0  0  0  0
    1.7521   -0.1387   -1.1296 C   0  0  0  0  0  0  0  0  0  0  0  0
    2.7506    0.8483   -1.4728 O   0  0  0  0  0  0  0  0  0  0  0  0
    2.4262   -1.2733   -0.3579 C   0  0  0  0  0  0  0  0  0  0  0  0
    2.9828   -0.7460    0.8477 O   0  0  0  0  0  0  0  0  0  0  0  0
   -3.9720    1.0338    1.2330 H   0  0  0  0  0  0  0  0  0  0  0  0
   -3.1630   -1.0729    0.6645 H   0  0  0  0  0  0  0  0  0  0  0  0
   -2.2748   -1.0044    2.2083 H   0  0  0  0  0  0  0  0  0  0  0  0
   -1.2927    1.2274    1.4981 H   0  0  0  0  0  0  0  0  0  0  0  0
   -1.6053    1.7426   -0.7502 H   0  0  0  0  0  0  0  0  0  0  0  0
   -0.0840   -0.9866    0.9276 H   0  0  0  0  0  0  0  0  0  0  0  0
   -1.5114   -0.5037   -1.4640 H   0  0  0  0  0  0  0  0  0  0  0  0
    1.0957    1.1514    0.5019 H   0  0  0  0  0  0  0  0  0  0  0  0
    0.8922    1.9810   -1.6932 H   0  0  0  0  0  0  0  0  0  0  0  0
    1.3554   -0.5115   -2.0801 H   0  0  0  0  0  0  0  0  0  0  0  0
    3.3171    0.9286   -0.6783 H   0  0  0  0  0  0  0  0  0  0  0  0
    3.2519   -1.6884   -0.9450 H   0  0  0  0  0  0  0  0  0  0  0  0
    1.7261   -2.0751   -0.1089 H   0  0  0  0  0  0  0  0  0  0  0  0
    3.4446   -1.4837    1.2875 H   0  0  0  0  0  0  0  0  0  0  0  0
  1  2  1  0
  2  3  1  0
  3  4  1  0
  3  5  1  0
  5  6  1  0
  5  7  1  0
  7  8  1  0
  7  9  1  0
  9 10  1  0
  9 11  1  0
 11 12  1  0
  1 13  1  0
  2 14  1  0
  2 15  1  0
  3 16  1  0
  4 17  1  0
  5 18  1  0
  6 19  1  0
  7 20  1  0
  8 21  1  0
  9 22  1  0
 10 23  1  0
 11 24  1  0
 11 25  1  0
 12 26  1  0
M  END
>  <Energy>  (3) 
86.4384129406708

>  <Real charge>  (3) 
0

>  <Mult>  (3) 
1

$$$$
mol_234 739
     RDKit          3D

 26 25  0  0  0  0  0  0  0  0999 V2000
   -3.6236    0.8657    1.7777 O   0  0  0  0  0  0  0  0  0  0  0  0
   -2.6791    0.3429    0.8311 C   0  0  0  0  0  0  0  0  0  0  0  0
   -1.3073    0.9315    1.1646 C   0  0  0  0  0  0  0  0  0  0  0  0
   -1.4618    2.3634    1.3375 O   0  0  0  0  0  0  0  0  0  0  0  0
   -0.2183    0.7297    0.0933 C   0  0  0  0  0  0  0  0  0  0  0  0
    0.9069    1.5360    0.4839 O   0  0  0  0  0  0  0  0  0  0  0  0
    0.2183   -0.7298   -0.0932 C   0  0  0  0  0  0  0  0  0  0  0  0
   -0.9068   -1.5361   -0.4837 O   0  0  0  0  0  0  0  0  0  0  0  0
    1.3072   -0.9315   -1.1645 C   0  0  0  0  0  0  0  0  0  0  0  0
    1.4619   -2.3634   -1.3375 O   0  0  0  0  0  0  0  0  0  0  0  0
    2.6791   -0.3429   -0.8312 C   0  0  0  0  0  0  0  0  0  0  0  0
    3.6235   -0.8657   -1.7779 O   0  0  0  0  0  0  0  0  0  0  0  0
   -4.4756    0.4378    1.5765 H   0  0  0  0  0  0  0  0  0  0  0  0
   -2.6922   -0.7458    0.9116 H   0  0  0  0  0  0  0  0  0  0  0  0
   -3.0103    0.6516   -0.1652 H   0  0  0  0  0  0  0  0  0  0  0  0
   -0.9630    0.5614    2.1374 H   0  0  0  0  0  0  0  0  0  0  0  0
   -2.3118    2.4484    1.8218 H   0  0  0  0  0  0  0  0  0  0  0  0
   -0.5804    1.1363   -0.8591 H   0  0  0  0  0  0  0  0  0  0  0  0
    0.4988    2.3621    0.8271 H   0  0  0  0  0  0  0  0  0  0  0  0
    0.5806   -1.1363    0.8592 H   0  0  0  0  0  0  0  0  0  0  0  0
   -0.4988   -2.3622   -0.8269 H   0  0  0  0  0  0  0  0  0  0  0  0
    0.9629   -0.5615   -2.1374 H   0  0  0  0  0  0  0  0  0  0  0  0
    2.3118   -2.4484   -1.8218 H   0  0  0  0  0  0  0  0  0  0  0  0
    3.0104   -0.6515    0.1650 H   0  0  0  0  0  0  0  0  0  0  0  0
    2.6922    0.7458   -0.9117 H   0  0  0  0  0  0  0  0  0  0  0  0
    4.4755   -0.4377   -1.5768 H   0  0  0  0  0  0  0  0  0  0  0  0
  1  2  1  0
  2  3  1  0
  3  4  1  0
  3  5  1  0
  5  6  1  0
  5  7  1  0
  7  8  1  0
  7  9  1  0
  9 10  1  0
  9 11  1  0
 11 12  1  0
  1 13  1  0
  2 14  1  0
  2 15  1  0
  3 16  1  0
  4 17  1  0
  5 18  1  0
  6 19  1  0
  7 20  1  0
  8 21  1  0
  9 22  1  0
 10 23  1  0
 11 24  1  0
 11 25  1  0
 12 26  1  0
M  END
>  <Energy>  (4) 
86.49681045363107

>  <Real charge>  (4) 
0

>  <Mult>  (4) 
1

$$$$
mol_234 308
     RDKit          3D

 26 25  0  0  0  0  0  0  0  0999 V2000
    0.8683    2.1279   -2.2781 O   0  0  0  0  0  0  0  0  0  0  0  0
    0.7169    0.7493   -2.6153 C   0  0  0  0  0  0  0  0  0  0  0  0
    1.4170   -0.1212   -1.5732 C   0  0  0  0  0  0  0  0  0  0  0  0
    2.8317    0.1531   -1.6550 O   0  0  0  0  0  0  0  0  0  0  0  0
    0.9795    0.1564   -0.1212 C   0  0  0  0  0  0  0  0  0  0  0  0
    1.7476   -0.7507    0.7062 O   0  0  0  0  0  0  0  0  0  0  0  0
   -0.5256   -0.0688    0.1283 C   0  0  0  0  0  0  0  0  0  0  0  0
   -0.8278   -1.4608   -0.0832 O   0  0  0  0  0  0  0  0  0  0  0  0
   -0.9369    0.3278    1.5646 C   0  0  0  0  0  0  0  0  0  0  0  0
   -0.1679   -0.4456    2.5069 O   0  0  0  0  0  0  0  0  0  0  0  0
   -2.4286    0.0812    1.8312 C   0  0  0  0  0  0  0  0  0  0  0  0
   -2.6854   -1.3242    1.8713 O   0  0  0  0  0  0  0  0  0  0  0  0
    1.8359    2.2702   -2.2415 H   0  0  0  0  0  0  0  0  0  0  0  0
   -0.3505    0.5248   -2.6856 H   0  0  0  0  0  0  0  0  0  0  0  0
    1.1629    0.6030   -3.6048 H   0  0  0  0  0  0  0  0  0  0  0  0
    1.2918   -1.1805   -1.8240 H   0  0  0  0  0  0  0  0  0  0  0  0
    3.2159   -0.3151   -0.8847 H   0  0  0  0  0  0  0  0  0  0  0  0
    1.2742    1.1708    0.1721 H   0  0  0  0  0  0  0  0  0  0  0  0
    1.4197   -0.6214    1.6259 H   0  0  0  0  0  0  0  0  0  0  0  0
   -1.1292    0.5127   -0.5750 H   0  0  0  0  0  0  0  0  0  0  0  0
   -0.0758   -1.9504    0.3148 H   0  0  0  0  0  0  0  0  0  0  0  0
   -0.7042    1.3851    1.7311 H   0  0  0  0  0  0  0  0  0  0  0  0
   -0.7674   -1.1671    2.7996 H   0  0  0  0  0  0  0  0  0  0  0  0
   -3.0652    0.5458    1.0724 H   0  0  0  0  0  0  0  0  0  0  0  0
   -2.7038    0.4787    2.8131 H   0  0  0  0  0  0  0  0  0  0  0  0
   -2.3934   -1.6811    1.0039 H   0  0  0  0  0  0  0  0  0  0  0  0
  1  2  1  0
  2  3  1  0
  3  4  1  0
  3  5  1  0
  5  6  1  0
  5  7  1  0
  7  8  1  0
  7  9  1  0
  9 10  1  0
  9 11  1  0
 11 12  1  0
  1 13  1  0
  2 14  1  0
  2 15  1  0
  3 16  1  0
  4 17  1  0
  5 18  1  0
  6 19  1  0
  7 20  1  0
  8 21  1  0
  9 22  1  0
 10 23  1  0
 11 24  1  0
 11 25  1  0
 12 26  1  0
M  END
>  <Energy>  (5) 
86.49739280527328

>  <Real charge>  (5) 
0

>  <Mult>  (5) 
1

$$$$
mol_234 425
     RDKit          3D

 26 25  0  0  0  0  0  0  0  0999 V2000
   -2.3248    0.8761   -1.9137 O   0  0  0  0  0  0  0  0  0  0  0  0
   -2.1357   -0.5328   -1.7661 C   0  0  0  0  0  0  0  0  0  0  0  0
   -1.8001   -0.8360   -0.3056 C   0  0  0  0  0  0  0  0  0  0  0  0
   -2.9091   -0.4215    0.5237 O   0  0  0  0  0  0  0  0  0  0  0  0
   -0.5577   -0.0945    0.2276 C   0  0  0  0  0  0  0  0  0  0  0  0
   -0.3657   -0.4981    1.6038 O   0  0  0  0  0  0  0  0  0  0  0  0
    0.7281   -0.3649   -0.5792 C   0  0  0  0  0  0  0  0  0  0  0  0
    0.8503   -1.7798   -0.8069 O   0  0  0  0  0  0  0  0  0  0  0  0
    2.0218    0.1138    0.1112 C   0  0  0  0  0  0  0  0  0  0  0  0
    2.2465   -0.6400    1.3215 O   0  0  0  0  0  0  0  0  0  0  0  0
    2.0267    1.6038    0.4555 C   0  0  0  0  0  0  0  0  0  0  0  0
    3.3005    1.9612    0.9930 O   0  0  0  0  0  0  0  0  0  0  0  0
   -2.5814    1.0263   -2.8425 H   0  0  0  0  0  0  0  0  0  0  0  0
   -3.0759   -1.0197   -2.0448 H   0  0  0  0  0  0  0  0  0  0  0  0
   -1.3465   -0.8613   -2.4476 H   0  0  0  0  0  0  0  0  0  0  0  0
   -1.6975   -1.9161   -0.1560 H   0  0  0  0  0  0  0  0  0  0  0  0
   -3.2113    0.4288    0.1437 H   0  0  0  0  0  0  0  0  0  0  0  0
   -0.7528    0.9835    0.2648 H   0  0  0  0  0  0  0  0  0  0  0  0
   -1.2751   -0.5561    1.9715 H   0  0  0  0  0  0  0  0  0  0  0  0
    0.6472    0.1112   -1.5624 H   0  0  0  0  0  0  0  0  0  0  0  0
    1.2680   -2.1407    0.0030 H   0  0  0  0  0  0  0  0  0  0  0  0
    2.8812   -0.1189   -0.5284 H   0  0  0  0  0  0  0  0  0  0  0  0
    1.3928   -0.6223    1.8136 H   0  0  0  0  0  0  0  0  0  0  0  0
    1.2828    1.8453    1.2203 H   0  0  0  0  0  0  0  0  0  0  0  0
    1.8437    2.2190   -0.4300 H   0  0  0  0  0  0  0  0  0  0  0  0
    3.5440    1.2337    1.6000 H   0  0  0  0  0  0  0  0  0  0  0  0
  1  2  1  0
  2  3  1  0
  3  4  1  0
  3  5  1  0
  5  6  1  0
  5  7  1  0
  7  8  1  0
  7  9  1  0
  9 10  1  0
  9 11  1  0
 11 12  1  0
  1 13  1  0
  2 14  1  0
  2 15  1  0
  3 16  1  0
  4 17  1  0
  5 18  1  0
  6 19  1  0
  7 20  1  0
  8 21  1  0
  9 22  1  0
 10 23  1  0
 11 24  1  0
 11 25  1  0
 12 26  1  0
M  END
>  <Energy>  (6) 
86.81456870166174

>  <Real charge>  (6) 
0

>  <Mult>  (6) 
1

$$$$
