mol_1051 1213
     RDKit          3D

 57 59  0  0  0  0  0  0  0  0999 V2000
   -7.7466    2.0435    0.7294 C   0  0  0  0  0  0  0  0  0  0  0  0
   -7.0343    1.2194   -0.1946 O   0  0  0  0  0  0  0  0  0  0  0  0
   -5.7715    0.9131    0.1986 C   0  0  0  0  0  0  0  0  0  0  0  0
   -5.2423    1.2649    1.2421 O   0  0  0  0  0  0  0  0  0  0  0  0
   -5.1095    0.0793   -0.8380 C   0  0  0  0  0  0  0  0  0  0  0  0
   -5.8664   -0.7909   -1.6392 C   0  0  0  0  0  0  0  0  0  0  0  0
   -5.2398   -1.5915   -2.5961 C   0  0  0  0  0  0  0  0  0  0  0  0
   -3.8581   -1.5243   -2.7637 C   0  0  0  0  0  0  0  0  0  0  0  0
   -3.0980   -0.6636   -1.9705 C   0  0  0  0  0  0  0  0  0  0  0  0
   -3.7161    0.1233   -0.9927 C   0  0  0  0  0  0  0  0  0  0  0  0
   -2.9867    1.0144   -0.2515 O   0  0  0  0  0  0  0  0  0  0  0  0
   -1.9177    0.4107    0.5003 C   0  0  0  0  0  0  0  0  0  0  0  0
   -0.6991    0.4972   -0.2434 O   0  0  0  0  0  0  0  0  0  0  0  0
    0.4360   -0.0147    0.4715 C   0  0  0  0  0  0  0  0  0  0  0  0
    1.6574    0.0482   -0.4526 C   0  0  0  0  0  0  0  0  0  0  0  0
    2.7281   -0.7086    0.1208 O   0  0  0  0  0  0  0  0  0  0  0  0
    3.9066   -0.6605   -0.6962 C   0  0  0  0  0  0  0  0  0  0  0  0
    4.4509    0.6557   -0.7282 O   0  0  0  0  0  0  0  0  0  0  0  0
    5.6329    0.7348   -1.5271 C   0  0  0  0  0  0  0  0  0  0  0  0
    6.7382   -0.1692   -0.9836 C   0  0  0  0  0  0  0  0  0  0  0  0
    7.8770   -0.1425   -1.8446 O   0  0  0  0  0  0  0  0  0  0  0  0
    6.2222   -1.6036   -0.8638 C   0  0  0  0  0  0  0  0  0  0  0  0
    7.2207   -2.4143   -0.2237 O   0  0  0  0  0  0  0  0  0  0  0  0
    4.9186   -1.6392   -0.0709 C   0  0  0  0  0  0  0  0  0  0  0  0
    4.4156   -2.9857   -0.0635 O   0  0  0  0  0  0  0  0  0  0  0  0
    0.6666    0.7593    1.7811 C   0  0  0  0  0  0  0  0  0  0  0  0
    0.9765    2.1357    1.5214 O   0  0  0  0  0  0  0  0  0  0  0  0
   -0.6029    0.7050    2.6279 C   0  0  0  0  0  0  0  0  0  0  0  0
   -0.4346    1.5346    3.7905 O   0  0  0  0  0  0  0  0  0  0  0  0
   -1.8217    1.1807    1.8341 C   0  0  0  0  0  0  0  0  0  0  0  0
   -2.9728    0.9690    2.6722 O   0  0  0  0  0  0  0  0  0  0  0  0
   -7.2340    3.0013    0.8633 H   0  0  0  0  0  0  0  0  0  0  0  0
   -7.8652    1.5290    1.6882 H   0  0  0  0  0  0  0  0  0  0  0  0
   -8.7397    2.2371    0.3148 H   0  0  0  0  0  0  0  0  0  0  0  0
   -6.9459   -0.8549   -1.5228 H   0  0  0  0  0  0  0  0  0  0  0  0
   -5.8312   -2.2604   -3.2173 H   0  0  0  0  0  0  0  0  0  0  0  0
   -3.3721   -2.1325   -3.5231 H   0  0  0  0  0  0  0  0  0  0  0  0
   -2.0267   -0.5928   -2.1408 H   0  0  0  0  0  0  0  0  0  0  0  0
   -2.1506   -0.6437    0.7107 H   0  0  0  0  0  0  0  0  0  0  0  0
    0.2417   -1.0687    0.7125 H   0  0  0  0  0  0  0  0  0  0  0  0
    1.9602    1.0871   -0.6261 H   0  0  0  0  0  0  0  0  0  0  0  0
    1.3963   -0.3818   -1.4276 H   0  0  0  0  0  0  0  0  0  0  0  0
    3.6377   -0.9894   -1.7091 H   0  0  0  0  0  0  0  0  0  0  0  0
    5.3920    0.4890   -2.5691 H   0  0  0  0  0  0  0  0  0  0  0  0
    5.9732    1.7761   -1.5291 H   0  0  0  0  0  0  0  0  0  0  0  0
    7.0624    0.1877    0.0016 H   0  0  0  0  0  0  0  0  0  0  0  0
    8.4689   -0.8444   -1.5061 H   0  0  0  0  0  0  0  0  0  0  0  0
    6.0803   -2.0428   -1.8593 H   0  0  0  0  0  0  0  0  0  0  0  0
    6.7693   -3.2578   -0.0171 H   0  0  0  0  0  0  0  0  0  0  0  0
    5.1116   -1.3754    0.9765 H   0  0  0  0  0  0  0  0  0  0  0  0
    3.5386   -2.9256    0.3646 H   0  0  0  0  0  0  0  0  0  0  0  0
    1.5128    0.3453    2.3407 H   0  0  0  0  0  0  0  0  0  0  0  0
    0.9193    2.5772    2.3935 H   0  0  0  0  0  0  0  0  0  0  0  0
   -0.7684   -0.3165    2.9921 H   0  0  0  0  0  0  0  0  0  0  0  0
   -1.3316    1.6019    4.1793 H   0  0  0  0  0  0  0  0  0  0  0  0
   -1.7629    2.2611    1.6546 H   0  0  0  0  0  0  0  0  0  0  0  0
   -3.7652    1.2137    2.1368 H   0  0  0  0  0  0  0  0  0  0  0  0
  1  2  1  0
  2  3  1  0
  3  4  2  0
  3  5  1  0
  5  6  2  0
  6  7  1  0
  7  8  2  0
  8  9  1  0
  9 10  2  0
 10 11  1  0
 11 12  1  0
 12 13  1  0
 13 14  1  0
 14 15  1  0
 15 16  1  0
 16 17  1  0
 17 18  1  0
 18 19  1  0
 19 20  1  0
 20 21  1  0
 20 22  1  0
 22 23  1  0
 22 24  1  0
 24 25  1  0
 14 26  1  0
 26 27  1  0
 26 28  1  0
 28 29  1  0
 28 30  1  0
 30 31  1  0
 10  5  1  0
 30 12  1  0
 24 17  1  0
  1 32  1  0
  1 33  1  0
  1 34  1  0
  6 35  1  0
  7 36  1  0
  8 37  1  0
  9 38  1  0
 12 39  1  0
 14 40  1  0
 15 41  1  0
 15 42  1  0
 17 43  1  0
 19 44  1  0
 19 45  1  0
 20 46  1  0
 21 47  1  0
 22 48  1  0
 23 49  1  0
 24 50  1  0
 25 51  1  0
 26 52  1  0
 27 53  1  0
 28 54  1  0
 29 55  1  0
 30 56  1  0
 31 57  1  0
M  END
>  <Energy>  (1) 
206.29477899284387

>  <Real charge>  (1) 
0

>  <Mult>  (1) 
1

$$$$
