mol_805 18
     RDKit          3D

 28 27  0  0  0  0  0  0  0  0999 V2000
    3.3812    1.7896   -0.3807 C   0  0  0  0  0  0  0  0  0  0  0  0
    2.4801    0.6830   -0.1975 N   0  0  0  0  0  0  0  0  0  0  0  0
    2.9297   -0.6033   -0.0962 C   0  0  0  0  0  0  0  0  0  0  0  0
    4.1145   -0.9191   -0.0744 O   0  0  0  0  0  0  0  0  0  0  0  0
    1.8895   -1.6655   -0.0443 C   0  0  0  0  0  0  0  0  0  0  0  0
    0.5560   -1.5348    0.0671 C   0  0  0  0  0  0  0  0  0  0  0  0
   -0.3432   -2.7365    0.1133 C   0  0  0  0  0  0  0  0  0  0  0  0
   -0.0438   -0.2896    0.1571 O   0  0  0  0  0  0  0  0  0  0  0  0
   -1.6226    0.0424    0.2510 P   0  0  0  0  0  5  0  0  0  0  0  0
   -2.3744   -0.6271    1.3586 O   0  0  0  0  0  0  0  0  0  0  0  0
   -2.1642   -0.2655   -1.2349 O   0  0  0  0  0  0  0  0  0  0  0  0
   -3.5483   -0.0831   -1.4504 C   0  0  0  0  0  0  0  0  0  0  0  0
   -1.6398    1.6547    0.3103 O   0  0  0  0  0  0  0  0  0  0  0  0
   -1.2667    2.2412    1.5410 C   0  0  0  0  0  0  0  0  0  0  0  0
    2.8740    2.7056   -0.0692 H   0  0  0  0  0  0  0  0  0  0  0  0
    3.6422    1.8544   -1.4402 H   0  0  0  0  0  0  0  0  0  0  0  0
    4.2898    1.6465    0.2101 H   0  0  0  0  0  0  0  0  0  0  0  0
    1.4873    0.8290   -0.3293 H   0  0  0  0  0  0  0  0  0  0  0  0
    2.3299   -2.6587   -0.0915 H   0  0  0  0  0  0  0  0  0  0  0  0
   -0.8585   -2.7928    1.0765 H   0  0  0  0  0  0  0  0  0  0  0  0
    0.2151   -3.6705   -0.0123 H   0  0  0  0  0  0  0  0  0  0  0  0
   -1.0876   -2.6946   -0.6872 H   0  0  0  0  0  0  0  0  0  0  0  0
   -3.8417    0.9398   -1.1993 H   0  0  0  0  0  0  0  0  0  0  0  0
   -3.7661   -0.2641   -2.5059 H   0  0  0  0  0  0  0  0  0  0  0  0
   -4.1186   -0.7930   -0.8453 H   0  0  0  0  0  0  0  0  0  0  0  0
   -1.2543    3.3275    1.4224 H   0  0  0  0  0  0  0  0  0  0  0  0
   -0.2682    1.9063    1.8347 H   0  0  0  0  0  0  0  0  0  0  0  0
   -1.9910    1.9784    2.3166 H   0  0  0  0  0  0  0  0  0  0  0  0
  1  2  1  0
  2  3  1  0
  3  4  2  0
  3  5  1  0
  5  6  2  3
  6  7  1  0
  6  8  1  0
  8  9  1  0
  9 10  2  0
  9 11  1  0
 11 12  1  0
  9 13  1  0
 13 14  1  0
  1 15  1  0
  1 16  1  0
  1 17  1  0
  2 18  1  0
  5 19  1  0
  7 20  1  0
  7 21  1  0
  7 22  1  0
 12 23  1  0
 12 24  1  0
 12 25  1  0
 14 26  1  0
 14 27  1  0
 14 28  1  0
M  END
>  <Energy>  (1) 
-75.33511121561703

>  <Real charge>  (1) 
0

>  <Mult>  (1) 
1

$$$$
mol_805 15
     RDKit          3D

 28 27  0  0  0  0  0  0  0  0999 V2000
    3.2603    0.6430    1.7368 C   0  0  0  0  0  0  0  0  0  0  0  0
    2.3742    0.4339    0.6223 N   0  0  0  0  0  0  0  0  0  0  0  0
    2.8323    0.0001   -0.5897 C   0  0  0  0  0  0  0  0  0  0  0  0
    3.9939   -0.3241   -0.8117 O   0  0  0  0  0  0  0  0  0  0  0  0
    1.8384   -0.0439   -1.6955 C   0  0  0  0  0  0  0  0  0  0  0  0
    0.5058    0.1222   -1.6350 C   0  0  0  0  0  0  0  0  0  0  0  0
   -0.3500    0.0270   -2.8651 C   0  0  0  0  0  0  0  0  0  0  0  0
   -0.1361    0.3880   -0.4360 O   0  0  0  0  0  0  0  0  0  0  0  0
   -1.7275    0.3859   -0.1500 P   0  0  0  0  0  5  0  0  0  0  0  0
   -2.5429    1.2944   -1.0162 O   0  0  0  0  0  0  0  0  0  0  0  0
   -1.8024    0.7350    1.4241 O   0  0  0  0  0  0  0  0  0  0  0  0
   -3.0936    0.9635    1.9530 C   0  0  0  0  0  0  0  0  0  0  0  0
   -2.1511   -1.1691   -0.2126 O   0  0  0  0  0  0  0  0  0  0  0  0
   -1.4314   -2.1026    0.5667 C   0  0  0  0  0  0  0  0  0  0  0  0
    3.7393    1.6189    1.6225 H   0  0  0  0  0  0  0  0  0  0  0  0
    4.0258   -0.1367    1.7695 H   0  0  0  0  0  0  0  0  0  0  0  0
    2.6713    0.6266    2.6566 H   0  0  0  0  0  0  0  0  0  0  0  0
    1.4301    0.7968    0.6719 H   0  0  0  0  0  0  0  0  0  0  0  0
    2.3102   -0.2646   -2.6501 H   0  0  0  0  0  0  0  0  0  0  0  0
   -0.8488    0.9815   -3.0574 H   0  0  0  0  0  0  0  0  0  0  0  0
    0.2390   -0.2180   -3.7556 H   0  0  0  0  0  0  0  0  0  0  0  0
   -1.1069   -0.7547   -2.7517 H   0  0  0  0  0  0  0  0  0  0  0  0
   -3.5105    1.8842    1.5364 H   0  0  0  0  0  0  0  0  0  0  0  0
   -3.7527    0.1205    1.7284 H   0  0  0  0  0  0  0  0  0  0  0  0
   -3.0140    1.0707    3.0377 H   0  0  0  0  0  0  0  0  0  0  0  0
   -1.8869   -3.0877    0.4369 H   0  0  0  0  0  0  0  0  0  0  0  0
   -0.3907   -2.1549    0.2381 H   0  0  0  0  0  0  0  0  0  0  0  0
   -1.4750   -1.8358    1.6256 H   0  0  0  0  0  0  0  0  0  0  0  0
  1  2  1  0
  2  3  1  0
  3  4  2  0
  3  5  1  0
  5  6  2  3
  6  7  1  0
  6  8  1  0
  8  9  1  0
  9 10  2  0
  9 11  1  0
 11 12  1  0
  9 13  1  0
 13 14  1  0
  1 15  1  0
  1 16  1  0
  1 17  1  0
  2 18  1  0
  5 19  1  0
  7 20  1  0
  7 21  1  0
  7 22  1  0
 12 23  1  0
 12 24  1  0
 12 25  1  0
 14 26  1  0
 14 27  1  0
 14 28  1  0
M  END
>  <Energy>  (2) 
-75.29601280523222

>  <Real charge>  (2) 
0

>  <Mult>  (2) 
1

$$$$
mol_805 457
     RDKit          3D

 28 27  0  0  0  0  0  0  0  0999 V2000
    3.2552    1.4652    1.4905 C   0  0  0  0  0  0  0  0  0  0  0  0
    2.3559    0.4188    1.0828 N   0  0  0  0  0  0  0  0  0  0  0  0
    2.8017   -0.8284    0.7479 C   0  0  0  0  0  0  0  0  0  0  0  0
    3.9698   -1.1906    0.8370 O   0  0  0  0  0  0  0  0  0  0  0  0
    1.7725   -1.7898    0.2703 C   0  0  0  0  0  0  0  0  0  0  0  0
    0.5081   -1.5435   -0.1146 C   0  0  0  0  0  0  0  0  0  0  0  0
   -0.3927   -2.6493   -0.5838 C   0  0  0  0  0  0  0  0  0  0  0  0
   -0.0110   -0.2590   -0.1133 O   0  0  0  0  0  0  0  0  0  0  0  0
   -1.5168    0.1969   -0.4840 P   0  0  0  0  0  5  0  0  0  0  0  0
   -2.0218   -0.2223   -1.8291 O   0  0  0  0  0  0  0  0  0  0  0  0
   -1.4661    1.7936   -0.2571 O   0  0  0  0  0  0  0  0  0  0  0  0
   -0.8142    2.5493   -1.2578 C   0  0  0  0  0  0  0  0  0  0  0  0
   -2.3884   -0.3145    0.7708 O   0  0  0  0  0  0  0  0  0  0  0  0
   -3.7785   -0.0705    0.7128 C   0  0  0  0  0  0  0  0  0  0  0  0
    4.0680    1.0591    2.0984 H   0  0  0  0  0  0  0  0  0  0  0  0
    3.6698    1.9352    0.5949 H   0  0  0  0  0  0  0  0  0  0  0  0
    2.6915    2.2030    2.0661 H   0  0  0  0  0  0  0  0  0  0  0  0
    1.3848    0.6424    0.9061 H   0  0  0  0  0  0  0  0  0  0  0  0
    2.1611   -2.8045    0.2262 H   0  0  0  0  0  0  0  0  0  0  0  0
   -0.6666   -2.5016   -1.6324 H   0  0  0  0  0  0  0  0  0  0  0  0
   -1.3038   -2.6898    0.0203 H   0  0  0  0  0  0  0  0  0  0  0  0
    0.0897   -3.6300   -0.5082 H   0  0  0  0  0  0  0  0  0  0  0  0
    0.2114    2.1956   -1.3940 H   0  0  0  0  0  0  0  0  0  0  0  0
   -0.7883    3.5963   -0.9456 H   0  0  0  0  0  0  0  0  0  0  0  0
   -1.3624    2.4749   -2.2007 H   0  0  0  0  0  0  0  0  0  0  0  0
   -4.2221   -0.6254   -0.1183 H   0  0  0  0  0  0  0  0  0  0  0  0
   -4.2337   -0.4096    1.6466 H   0  0  0  0  0  0  0  0  0  0  0  0
   -3.9731    0.9986    0.5924 H   0  0  0  0  0  0  0  0  0  0  0  0
  1  2  1  0
  2  3  1  0
  3  4  2  0
  3  5  1  0
  5  6  2  3
  6  7  1  0
  6  8  1  0
  8  9  1  0
  9 10  2  0
  9 11  1  0
 11 12  1  0
  9 13  1  0
 13 14  1  0
  1 15  1  0
  1 16  1  0
  1 17  1  0
  2 18  1  0
  5 19  1  0
  7 20  1  0
  7 21  1  0
  7 22  1  0
 12 23  1  0
 12 24  1  0
 12 25  1  0
 14 26  1  0
 14 27  1  0
 14 28  1  0
M  END
>  <Energy>  (3) 
-75.24926533696735

>  <Real charge>  (3) 
0

>  <Mult>  (3) 
1

$$$$
mol_805 188
     RDKit          3D

 28 27  0  0  0  0  0  0  0  0999 V2000
    3.2018    2.1582    0.4942 C   0  0  0  0  0  0  0  0  0  0  0  0
    2.4141    0.9643    0.3376 N   0  0  0  0  0  0  0  0  0  0  0  0
    2.8725   -0.1124   -0.3691 C   0  0  0  0  0  0  0  0  0  0  0  0
    3.9345   -0.1357   -0.9810 O   0  0  0  0  0  0  0  0  0  0  0  0
    2.0276   -1.3345   -0.3195 C   0  0  0  0  0  0  0  0  0  0  0  0
    0.7311   -1.4366    0.0209 C   0  0  0  0  0  0  0  0  0  0  0  0
    0.0250   -2.7617    0.0117 C   0  0  0  0  0  0  0  0  0  0  0  0
   -0.0087   -0.3245    0.3889 O   0  0  0  0  0  0  0  0  0  0  0  0
   -1.5972   -0.2486    0.6802 P   0  0  0  0  0  5  0  0  0  0  0  0
   -2.0877   -1.1242    1.7910 O   0  0  0  0  0  0  0  0  0  0  0  0
   -1.8610    1.3258    0.9161 O   0  0  0  0  0  0  0  0  0  0  0  0
   -1.4367    2.2396   -0.0747 C   0  0  0  0  0  0  0  0  0  0  0  0
   -2.2775   -0.5338   -0.7545 O   0  0  0  0  0  0  0  0  0  0  0  0
   -3.6842   -0.6724   -0.7636 C   0  0  0  0  0  0  0  0  0  0  0  0
    2.5337    2.9836    0.7507 H   0  0  0  0  0  0  0  0  0  0  0  0
    3.7398    2.3867   -0.4297 H   0  0  0  0  0  0  0  0  0  0  0  0
    3.9191    1.9986    1.3034 H   0  0  0  0  0  0  0  0  0  0  0  0
    1.5947    0.8347    0.9176 H   0  0  0  0  0  0  0  0  0  0  0  0
    2.5746   -2.2180   -0.6394 H   0  0  0  0  0  0  0  0  0  0  0  0
    0.6890   -3.5768   -0.2963 H   0  0  0  0  0  0  0  0  0  0  0  0
   -0.3442   -3.0054    1.0122 H   0  0  0  0  0  0  0  0  0  0  0  0
   -0.8174   -2.7493   -0.6855 H   0  0  0  0  0  0  0  0  0  0  0  0
   -1.9326    2.0326   -1.0262 H   0  0  0  0  0  0  0  0  0  0  0  0
   -0.3526    2.1923   -0.2009 H   0  0  0  0  0  0  0  0  0  0  0  0
   -1.7059    3.2494    0.2458 H   0  0  0  0  0  0  0  0  0  0  0  0
   -4.1565    0.1973   -0.2986 H   0  0  0  0  0  0  0  0  0  0  0  0
   -4.0224   -0.7466   -1.8001 H   0  0  0  0  0  0  0  0  0  0  0  0
   -3.9729   -1.5826   -0.2313 H   0  0  0  0  0  0  0  0  0  0  0  0
  1  2  1  0
  2  3  1  0
  3  4  2  0
  3  5  1  0
  5  6  2  3
  6  7  1  0
  6  8  1  0
  8  9  1  0
  9 10  2  0
  9 11  1  0
 11 12  1  0
  9 13  1  0
 13 14  1  0
  1 15  1  0
  1 16  1  0
  1 17  1  0
  2 18  1  0
  5 19  1  0
  7 20  1  0
  7 21  1  0
  7 22  1  0
 12 23  1  0
 12 24  1  0
 12 25  1  0
 14 26  1  0
 14 27  1  0
 14 28  1  0
M  END
>  <Energy>  (4) 
-74.86697724758119

>  <Real charge>  (4) 
0

>  <Mult>  (4) 
1

$$$$
mol_805 456
     RDKit          3D

 28 27  0  0  0  0  0  0  0  0999 V2000
    2.5968    2.3636    0.2884 C   0  0  0  0  0  0  0  0  0  0  0  0
    1.9629    1.0819    0.1256 N   0  0  0  0  0  0  0  0  0  0  0  0
    2.6833   -0.0785    0.0948 C   0  0  0  0  0  0  0  0  0  0  0  0
    3.8937   -0.1423    0.2801 O   0  0  0  0  0  0  0  0  0  0  0  0
    1.9225   -1.3229   -0.1980 C   0  0  0  0  0  0  0  0  0  0  0  0
    0.6011   -1.4817   -0.3880 C   0  0  0  0  0  0  0  0  0  0  0  0
    0.0112   -2.8347   -0.6667 C   0  0  0  0  0  0  0  0  0  0  0  0
   -0.2729   -0.4071   -0.3416 O   0  0  0  0  0  0  0  0  0  0  0  0
   -1.8912   -0.4570   -0.3376 P   0  0  0  0  0  5  0  0  0  0  0  0
   -2.5132   -1.1659   -1.4998 O   0  0  0  0  0  0  0  0  0  0  0  0
   -2.2699   -1.0535    1.1105 O   0  0  0  0  0  0  0  0  0  0  0  0
   -1.8203   -0.3740    2.2641 C   0  0  0  0  0  0  0  0  0  0  0  0
   -2.2896    1.1029   -0.2225 O   0  0  0  0  0  0  0  0  0  0  0  0
   -2.2309    1.8554   -1.4175 C   0  0  0  0  0  0  0  0  0  0  0  0
    3.4205    2.2959    1.0041 H   0  0  0  0  0  0  0  0  0  0  0  0
    1.8505    3.0774    0.6446 H   0  0  0  0  0  0  0  0  0  0  0  0
    2.9830    2.6867   -0.6818 H   0  0  0  0  0  0  0  0  0  0  0  0
    0.9908    1.0444   -0.1516 H   0  0  0  0  0  0  0  0  0  0  0  0
    2.5783   -2.1897   -0.2420 H   0  0  0  0  0  0  0  0  0  0  0  0
   -0.4559   -2.8509   -1.6557 H   0  0  0  0  0  0  0  0  0  0  0  0
    0.7713   -3.6234   -0.6528 H   0  0  0  0  0  0  0  0  0  0  0  0
   -0.7383   -3.0942    0.0866 H   0  0  0  0  0  0  0  0  0  0  0  0
   -2.0496   -0.9858    3.1403 H   0  0  0  0  0  0  0  0  0  0  0  0
   -2.3376    0.5838    2.3622 H   0  0  0  0  0  0  0  0  0  0  0  0
   -0.7403   -0.2114    2.2250 H   0  0  0  0  0  0  0  0  0  0  0  0
   -3.0000    1.5119   -2.1142 H   0  0  0  0  0  0  0  0  0  0  0  0
   -2.4131    2.9063   -1.1796 H   0  0  0  0  0  0  0  0  0  0  0  0
   -1.2429    1.7630   -1.8771 H   0  0  0  0  0  0  0  0  0  0  0  0
  1  2  1  0
  2  3  1  0
  3  4  2  0
  3  5  1  0
  5  6  2  3
  6  7  1  0
  6  8  1  0
  8  9  1  0
  9 10  2  0
  9 11  1  0
 11 12  1  0
  9 13  1  0
 13 14  1  0
  1 15  1  0
  1 16  1  0
  1 17  1  0
  2 18  1  0
  5 19  1  0
  7 20  1  0
  7 21  1  0
  7 22  1  0
 12 23  1  0
 12 24  1  0
 12 25  1  0
 14 26  1  0
 14 27  1  0
 14 28  1  0
M  END
>  <Energy>  (5) 
-74.86621559751102

>  <Real charge>  (5) 
0

>  <Mult>  (5) 
1

$$$$
