mol_778 285
     RDKit          3D

 25 24  0  0  0  0  0  0  0  0999 V2000
    3.9160   -0.0489    0.1349 C   0  0  0  0  0  0  0  0  0  0  0  0
    2.6061    0.5525    0.6187 C   0  0  0  0  0  0  0  0  0  0  0  0
    1.4021   -0.1326   -0.0289 C   0  0  0  0  0  0  0  0  0  0  0  0
    0.0847    0.4786    0.4627 C   0  0  0  0  0  0  0  0  0  0  0  0
   -1.1448   -0.1546   -0.2090 C   0  0  0  0  0  0  0  0  0  0  0  0
   -2.4170    0.6251    0.1562 C   0  0  0  0  0  0  0  0  0  0  0  0
   -3.6351    0.1644   -0.6348 C   0  0  0  0  0  0  0  0  0  0  0  0
   -1.2867   -1.5903    0.2548 C   0  0  0  0  0  0  0  0  0  0  0  0
   -1.2519   -2.5503   -0.5088 O   0  0  0  0  0  0  0  0  0  0  0  0
    3.9734   -1.1140    0.3811 H   0  0  0  0  0  0  0  0  0  0  0  0
    4.7630    0.4557    0.6100 H   0  0  0  0  0  0  0  0  0  0  0  0
    4.0206    0.0596   -0.9494 H   0  0  0  0  0  0  0  0  0  0  0  0
    2.5471    0.4561    1.7091 H   0  0  0  0  0  0  0  0  0  0  0  0
    2.5951    1.6237    0.3863 H   0  0  0  0  0  0  0  0  0  0  0  0
    1.4674   -0.0341   -1.1193 H   0  0  0  0  0  0  0  0  0  0  0  0
    1.4287   -1.2040    0.2016 H   0  0  0  0  0  0  0  0  0  0  0  0
    0.0977    1.5552    0.2511 H   0  0  0  0  0  0  0  0  0  0  0  0
    0.0180    0.3677    1.5527 H   0  0  0  0  0  0  0  0  0  0  0  0
   -1.0115   -0.1508   -1.2977 H   0  0  0  0  0  0  0  0  0  0  0  0
   -2.6315    0.5278    1.2277 H   0  0  0  0  0  0  0  0  0  0  0  0
   -2.2635    1.6923   -0.0446 H   0  0  0  0  0  0  0  0  0  0  0  0
   -3.8853   -0.8780   -0.4150 H   0  0  0  0  0  0  0  0  0  0  0  0
   -4.5042    0.7782   -0.3776 H   0  0  0  0  0  0  0  0  0  0  0  0
   -3.4615    0.2582   -1.7115 H   0  0  0  0  0  0  0  0  0  0  0  0
   -1.4268   -1.7374    1.3400 H   0  0  0  0  0  0  0  0  0  0  0  0
  1  2  1  0
  2  3  1  0
  3  4  1  0
  4  5  1  0
  5  6  1  0
  6  7  1  0
  5  8  1  0
  8  9  2  0
  1 10  1  0
  1 11  1  0
  1 12  1  0
  2 13  1  0
  2 14  1  0
  3 15  1  0
  3 16  1  0
  4 17  1  0
  4 18  1  0
  5 19  1  0
  6 20  1  0
  6 21  1  0
  7 22  1  0
  7 23  1  0
  7 24  1  0
  8 25  1  0
M  END
>  <Energy>  (1) 
1.924949866940499

>  <Real charge>  (1) 
0

>  <Mult>  (1) 
1

$$$$
mol_778 174
     RDKit          3D

 25 24  0  0  0  0  0  0  0  0999 V2000
    3.7954    0.2401    0.3746 C   0  0  0  0  0  0  0  0  0  0  0  0
    2.4984    0.3176   -0.4149 C   0  0  0  0  0  0  0  0  0  0  0  0
    1.2796    0.3190    0.5085 C   0  0  0  0  0  0  0  0  0  0  0  0
   -0.0249    0.4024   -0.2942 C   0  0  0  0  0  0  0  0  0  0  0  0
   -1.2677    0.4192    0.6097 C   0  0  0  0  0  0  0  0  0  0  0  0
   -2.5252    0.9232   -0.1201 C   0  0  0  0  0  0  0  0  0  0  0  0
   -2.8912    0.1369   -1.3731 C   0  0  0  0  0  0  0  0  0  0  0  0
   -1.5689   -0.9367    1.2289 C   0  0  0  0  0  0  0  0  0  0  0  0
   -0.9818   -1.9785    0.9568 O   0  0  0  0  0  0  0  0  0  0  0  0
    4.6534    0.2405   -0.3050 H   0  0  0  0  0  0  0  0  0  0  0  0
    3.8959    1.0964    1.0491 H   0  0  0  0  0  0  0  0  0  0  0  0
    3.8364   -0.6757    0.9729 H   0  0  0  0  0  0  0  0  0  0  0  0
    2.5038    1.2273   -1.0265 H   0  0  0  0  0  0  0  0  0  0  0  0
    2.4441   -0.5351   -1.1016 H   0  0  0  0  0  0  0  0  0  0  0  0
    1.2893   -0.5880    1.1233 H   0  0  0  0  0  0  0  0  0  0  0  0
    1.3420    1.1730    1.1941 H   0  0  0  0  0  0  0  0  0  0  0  0
   -0.0706   -0.4400   -0.9953 H   0  0  0  0  0  0  0  0  0  0  0  0
   -0.0025    1.3202   -0.8953 H   0  0  0  0  0  0  0  0  0  0  0  0
   -1.0817    1.0988    1.4517 H   0  0  0  0  0  0  0  0  0  0  0  0
   -2.3803    1.9745   -0.3977 H   0  0  0  0  0  0  0  0  0  0  0  0
   -3.3805    0.8974    0.5668 H   0  0  0  0  0  0  0  0  0  0  0  0
   -3.0501   -0.9223   -1.1494 H   0  0  0  0  0  0  0  0  0  0  0  0
   -3.8182    0.5308   -1.8024 H   0  0  0  0  0  0  0  0  0  0  0  0
   -2.1137    0.2171   -2.1385 H   0  0  0  0  0  0  0  0  0  0  0  0
   -2.3808   -0.9378    1.9775 H   0  0  0  0  0  0  0  0  0  0  0  0
  1  2  1  0
  2  3  1  0
  3  4  1  0
  4  5  1  0
  5  6  1  0
  6  7  1  0
  5  8  1  0
  8  9  2  0
  1 10  1  0
  1 11  1  0
  1 12  1  0
  2 13  1  0
  2 14  1  0
  3 15  1  0
  3 16  1  0
  4 17  1  0
  4 18  1  0
  5 19  1  0
  6 20  1  0
  6 21  1  0
  7 22  1  0
  7 23  1  0
  7 24  1  0
  8 25  1  0
M  END
>  <Energy>  (2) 
2.2598578783569363

>  <Real charge>  (2) 
0

>  <Mult>  (2) 
1

$$$$
mol_778 185
     RDKit          3D

 25 24  0  0  0  0  0  0  0  0999 V2000
    3.6187   -0.1288    0.5243 C   0  0  0  0  0  0  0  0  0  0  0  0
    2.4828   -0.7337   -0.2854 C   0  0  0  0  0  0  0  0  0  0  0  0
    1.1476   -0.0565    0.0293 C   0  0  0  0  0  0  0  0  0  0  0  0
    0.0076   -0.6763   -0.7882 C   0  0  0  0  0  0  0  0  0  0  0  0
   -1.3659   -0.0126   -0.5772 C   0  0  0  0  0  0  0  0  0  0  0  0
   -1.8098   -0.0204    0.8927 C   0  0  0  0  0  0  0  0  0  0  0  0
   -3.3037    0.2370    1.0527 C   0  0  0  0  0  0  0  0  0  0  0  0
   -1.3368    1.3827   -1.1812 C   0  0  0  0  0  0  0  0  0  0  0  0
   -1.5225    2.4217   -0.5567 O   0  0  0  0  0  0  0  0  0  0  0  0
    3.4389   -0.2422    1.5981 H   0  0  0  0  0  0  0  0  0  0  0  0
    3.7318    0.9378    0.3053 H   0  0  0  0  0  0  0  0  0  0  0  0
    4.5630   -0.6270    0.2835 H   0  0  0  0  0  0  0  0  0  0  0  0
    2.4170   -1.8060   -0.0673 H   0  0  0  0  0  0  0  0  0  0  0  0
    2.7094   -0.6325   -1.3531 H   0  0  0  0  0  0  0  0  0  0  0  0
    1.2252    1.0152   -0.1870 H   0  0  0  0  0  0  0  0  0  0  0  0
    0.9395   -0.1580    1.1005 H   0  0  0  0  0  0  0  0  0  0  0  0
   -0.0737   -1.7411   -0.5348 H   0  0  0  0  0  0  0  0  0  0  0  0
    0.2681   -0.6300   -1.8538 H   0  0  0  0  0  0  0  0  0  0  0  0
   -2.0979   -0.5789   -1.1682 H   0  0  0  0  0  0  0  0  0  0  0  0
   -1.2601    0.7318    1.4707 H   0  0  0  0  0  0  0  0  0  0  0  0
   -1.5859   -0.9972    1.3382 H   0  0  0  0  0  0  0  0  0  0  0  0
   -3.5879    1.2207    0.6681 H   0  0  0  0  0  0  0  0  0  0  0  0
   -3.5800    0.1979    2.1112 H   0  0  0  0  0  0  0  0  0  0  0  0
   -3.8899   -0.5211    0.5234 H   0  0  0  0  0  0  0  0  0  0  0  0
   -1.1356    1.4174   -2.2665 H   0  0  0  0  0  0  0  0  0  0  0  0
  1  2  1  0
  2  3  1  0
  3  4  1  0
  4  5  1  0
  5  6  1  0
  6  7  1  0
  5  8  1  0
  8  9  2  0
  1 10  1  0
  1 11  1  0
  1 12  1  0
  2 13  1  0
  2 14  1  0
  3 15  1  0
  3 16  1  0
  4 17  1  0
  4 18  1  0
  5 19  1  0
  6 20  1  0
  6 21  1  0
  7 22  1  0
  7 23  1  0
  7 24  1  0
  8 25  1  0
M  END
>  <Energy>  (3) 
2.2981063039994223

>  <Real charge>  (3) 
0

>  <Mult>  (3) 
1

$$$$
mol_778 43
     RDKit          3D

 25 24  0  0  0  0  0  0  0  0999 V2000
    3.8835    0.4258   -0.2775 C   0  0  0  0  0  0  0  0  0  0  0  0
    2.6869   -0.4428    0.0768 C   0  0  0  0  0  0  0  0  0  0  0  0
    1.3717    0.3183   -0.0945 C   0  0  0  0  0  0  0  0  0  0  0  0
    0.1697   -0.5625    0.2680 C   0  0  0  0  0  0  0  0  0  0  0  0
   -1.1703    0.1839    0.1359 C   0  0  0  0  0  0  0  0  0  0  0  0
   -2.3059   -0.6421    0.7615 C   0  0  0  0  0  0  0  0  0  0  0  0
   -3.6047    0.1404    0.9107 C   0  0  0  0  0  0  0  0  0  0  0  0
   -1.5067    0.4759   -1.3182 C   0  0  0  0  0  0  0  0  0  0  0  0
   -1.0337   -0.1216   -2.2796 O   0  0  0  0  0  0  0  0  0  0  0  0
    4.8126   -0.1379   -0.1477 H   0  0  0  0  0  0  0  0  0  0  0  0
    3.9301    1.3105    0.3655 H   0  0  0  0  0  0  0  0  0  0  0  0
    3.8313    0.7597   -1.3187 H   0  0  0  0  0  0  0  0  0  0  0  0
    2.6874   -1.3334   -0.5622 H   0  0  0  0  0  0  0  0  0  0  0  0
    2.7867   -0.7864    1.1130 H   0  0  0  0  0  0  0  0  0  0  0  0
    1.3784    1.2087    0.5460 H   0  0  0  0  0  0  0  0  0  0  0  0
    1.2883    0.6673   -1.1298 H   0  0  0  0  0  0  0  0  0  0  0  0
    0.1686   -1.4611   -0.3619 H   0  0  0  0  0  0  0  0  0  0  0  0
    0.2926   -0.9030    1.3041 H   0  0  0  0  0  0  0  0  0  0  0  0
   -1.0888    1.1488    0.6513 H   0  0  0  0  0  0  0  0  0  0  0  0
   -2.4982   -1.5391    0.1598 H   0  0  0  0  0  0  0  0  0  0  0  0
   -2.0034   -0.9841    1.7588 H   0  0  0  0  0  0  0  0  0  0  0  0
   -4.3532   -0.4703    1.4258 H   0  0  0  0  0  0  0  0  0  0  0  0
   -3.4490    1.0509    1.4980 H   0  0  0  0  0  0  0  0  0  0  0  0
   -4.0191    0.4220   -0.0618 H   0  0  0  0  0  0  0  0  0  0  0  0
   -2.2548    1.2723   -1.4754 H   0  0  0  0  0  0  0  0  0  0  0  0
  1  2  1  0
  2  3  1  0
  3  4  1  0
  4  5  1  0
  5  6  1  0
  6  7  1  0
  5  8  1  0
  8  9  2  0
  1 10  1  0
  1 11  1  0
  1 12  1  0
  2 13  1  0
  2 14  1  0
  3 15  1  0
  3 16  1  0
  4 17  1  0
  4 18  1  0
  5 19  1  0
  6 20  1  0
  6 21  1  0
  7 22  1  0
  7 23  1  0
  7 24  1  0
  8 25  1  0
M  END
>  <Energy>  (4) 
2.3695747323176635

>  <Real charge>  (4) 
0

>  <Mult>  (4) 
1

$$$$
mol_778 93
     RDKit          3D

 25 24  0  0  0  0  0  0  0  0999 V2000
    3.8968   -0.3587    0.0876 C   0  0  0  0  0  0  0  0  0  0  0  0
    2.6370    0.4111    0.4509 C   0  0  0  0  0  0  0  0  0  0  0  0
    1.3823   -0.2858   -0.0775 C   0  0  0  0  0  0  0  0  0  0  0  0
    0.1161    0.4950    0.2937 C   0  0  0  0  0  0  0  0  0  0  0  0
   -1.1663   -0.1268   -0.2859 C   0  0  0  0  0  0  0  0  0  0  0  0
   -2.3501    0.8426   -0.1255 C   0  0  0  0  0  0  0  0  0  0  0  0
   -3.5855    0.3953   -0.8978 C   0  0  0  0  0  0  0  0  0  0  0  0
   -1.4362   -1.4552    0.4033 C   0  0  0  0  0  0  0  0  0  0  0  0
   -2.2480   -1.6218    1.3078 O   0  0  0  0  0  0  0  0  0  0  0  0
    3.8776   -1.3665    0.5147 H   0  0  0  0  0  0  0  0  0  0  0  0
    4.7811    0.1573    0.4745 H   0  0  0  0  0  0  0  0  0  0  0  0
    4.0029   -0.4473   -0.9983 H   0  0  0  0  0  0  0  0  0  0  0  0
    2.5771    0.5092    1.5411 H   0  0  0  0  0  0  0  0  0  0  0  0
    2.7033    1.4240    0.0369 H   0  0  0  0  0  0  0  0  0  0  0  0
    1.4483   -0.3812   -1.1680 H   0  0  0  0  0  0  0  0  0  0  0  0
    1.3347   -1.2999    0.3351 H   0  0  0  0  0  0  0  0  0  0  0  0
    0.2206    1.5212   -0.0808 H   0  0  0  0  0  0  0  0  0  0  0  0
    0.0382    0.5604    1.3867 H   0  0  0  0  0  0  0  0  0  0  0  0
   -1.0254   -0.3364   -1.3534 H   0  0  0  0  0  0  0  0  0  0  0  0
   -2.6109    0.9622    0.9331 H   0  0  0  0  0  0  0  0  0  0  0  0
   -2.0635    1.8345   -0.4958 H   0  0  0  0  0  0  0  0  0  0  0  0
   -4.3851    1.1347   -0.7872 H   0  0  0  0  0  0  0  0  0  0  0  0
   -3.3641    0.2950   -1.9651 H   0  0  0  0  0  0  0  0  0  0  0  0
   -3.9648   -0.5640   -0.5339 H   0  0  0  0  0  0  0  0  0  0  0  0
   -0.8160   -2.2989    0.0542 H   0  0  0  0  0  0  0  0  0  0  0  0
  1  2  1  0
  2  3  1  0
  3  4  1  0
  4  5  1  0
  5  6  1  0
  6  7  1  0
  5  8  1  0
  8  9  2  0
  1 10  1  0
  1 11  1  0
  1 12  1  0
  2 13  1  0
  2 14  1  0
  3 15  1  0
  3 16  1  0
  4 17  1  0
  4 18  1  0
  5 19  1  0
  6 20  1  0
  6 21  1  0
  7 22  1  0
  7 23  1  0
  7 24  1  0
  8 25  1  0
M  END
>  <Energy>  (5) 
2.4166020626478097

>  <Real charge>  (5) 
0

>  <Mult>  (5) 
1

$$$$
mol_778 348
     RDKit          3D

 25 24  0  0  0  0  0  0  0  0999 V2000
    3.4105    1.0968    0.1976 C   0  0  0  0  0  0  0  0  0  0  0  0
    2.4317   -0.0629    0.2920 C   0  0  0  0  0  0  0  0  0  0  0  0
    1.0660    0.3080   -0.2878 C   0  0  0  0  0  0  0  0  0  0  0  0
    0.0846   -0.8628   -0.1864 C   0  0  0  0  0  0  0  0  0  0  0  0
   -1.2726   -0.5789   -0.8504 C   0  0  0  0  0  0  0  0  0  0  0  0
   -2.0461    0.6203   -0.2776 C   0  0  0  0  0  0  0  0  0  0  0  0
   -2.2911    0.5581    1.2248 C   0  0  0  0  0  0  0  0  0  0  0  0
   -2.1667   -1.8092   -0.8237 C   0  0  0  0  0  0  0  0  0  0  0  0
   -1.8674   -2.8799   -0.3052 O   0  0  0  0  0  0  0  0  0  0  0  0
    3.5659    1.3951   -0.8441 H   0  0  0  0  0  0  0  0  0  0  0  0
    4.3798    0.8097    0.6170 H   0  0  0  0  0  0  0  0  0  0  0  0
    3.0439    1.9658    0.7532 H   0  0  0  0  0  0  0  0  0  0  0  0
    2.3226   -0.3569    1.3424 H   0  0  0  0  0  0  0  0  0  0  0  0
    2.8436   -0.9249   -0.2455 H   0  0  0  0  0  0  0  0  0  0  0  0
    0.6732    1.1771    0.2515 H   0  0  0  0  0  0  0  0  0  0  0  0
    1.1809    0.6010   -1.3383 H   0  0  0  0  0  0  0  0  0  0  0  0
   -0.0543   -1.1408    0.8657 H   0  0  0  0  0  0  0  0  0  0  0  0
    0.5344   -1.7408   -0.6694 H   0  0  0  0  0  0  0  0  0  0  0  0
   -1.0936   -0.3799   -1.9156 H   0  0  0  0  0  0  0  0  0  0  0  0
   -1.5116    1.5486   -0.5104 H   0  0  0  0  0  0  0  0  0  0  0  0
   -3.0191    0.6968   -0.7797 H   0  0  0  0  0  0  0  0  0  0  0  0
   -1.3540    0.6014    1.7874 H   0  0  0  0  0  0  0  0  0  0  0  0
   -2.8229   -0.3559    1.5060 H   0  0  0  0  0  0  0  0  0  0  0  0
   -2.9021    1.4109    1.5381 H   0  0  0  0  0  0  0  0  0  0  0  0
   -3.1356   -1.6967   -1.3416 H   0  0  0  0  0  0  0  0  0  0  0  0
  1  2  1  0
  2  3  1  0
  3  4  1  0
  4  5  1  0
  5  6  1  0
  6  7  1  0
  5  8  1  0
  8  9  2  0
  1 10  1  0
  1 11  1  0
  1 12  1  0
  2 13  1  0
  2 14  1  0
  3 15  1  0
  3 16  1  0
  4 17  1  0
  4 18  1  0
  5 19  1  0
  6 20  1  0
  6 21  1  0
  7 22  1  0
  7 23  1  0
  7 24  1  0
  8 25  1  0
M  END
>  <Energy>  (6) 
2.662066768184434

>  <Real charge>  (6) 
0

>  <Mult>  (6) 
1

$$$$
mol_778 114
     RDKit          3D

 25 24  0  0  0  0  0  0  0  0999 V2000
    3.1668    1.3031   -0.2283 C   0  0  0  0  0  0  0  0  0  0  0  0
    2.2684    0.4506    0.6537 C   0  0  0  0  0  0  0  0  0  0  0  0
    0.9389    0.1386   -0.0359 C   0  0  0  0  0  0  0  0  0  0  0  0
    0.0378   -0.7166    0.8627 C   0  0  0  0  0  0  0  0  0  0  0  0
   -1.2922   -1.1409    0.2149 C   0  0  0  0  0  0  0  0  0  0  0  0
   -2.1638    0.0103   -0.3088 C   0  0  0  0  0  0  0  0  0  0  0  0
   -2.5546    1.0122    0.7675 C   0  0  0  0  0  0  0  0  0  0  0  0
   -1.0153   -2.1639   -0.8759 C   0  0  0  0  0  0  0  0  0  0  0  0
   -1.4053   -2.0721   -2.0353 O   0  0  0  0  0  0  0  0  0  0  0  0
    4.1110    1.5135    0.2837 H   0  0  0  0  0  0  0  0  0  0  0  0
    3.3965    0.7893   -1.1672 H   0  0  0  0  0  0  0  0  0  0  0  0
    2.6894    2.2588   -0.4671 H   0  0  0  0  0  0  0  0  0  0  0  0
    2.7883   -0.4824    0.9003 H   0  0  0  0  0  0  0  0  0  0  0  0
    2.0838    0.9789    1.5963 H   0  0  0  0  0  0  0  0  0  0  0  0
    1.1335   -0.3855   -0.9789 H   0  0  0  0  0  0  0  0  0  0  0  0
    0.4377    1.0805   -0.2848 H   0  0  0  0  0  0  0  0  0  0  0  0
    0.5910   -1.6170    1.1612 H   0  0  0  0  0  0  0  0  0  0  0  0
   -0.1699   -0.1685    1.7898 H   0  0  0  0  0  0  0  0  0  0  0  0
   -1.8706   -1.6840    0.9747 H   0  0  0  0  0  0  0  0  0  0  0  0
   -3.0843   -0.4072   -0.7373 H   0  0  0  0  0  0  0  0  0  0  0  0
   -1.6633    0.5344   -1.1316 H   0  0  0  0  0  0  0  0  0  0  0  0
   -3.0483    0.5134    1.6074 H   0  0  0  0  0  0  0  0  0  0  0  0
   -1.6840    1.5536    1.1486 H   0  0  0  0  0  0  0  0  0  0  0  0
   -3.2501    1.7514    0.3570 H   0  0  0  0  0  0  0  0  0  0  0  0
   -0.4415   -3.0506   -0.5534 H   0  0  0  0  0  0  0  0  0  0  0  0
  1  2  1  0
  2  3  1  0
  3  4  1  0
  4  5  1  0
  5  6  1  0
  6  7  1  0
  5  8  1  0
  8  9  2  0
  1 10  1  0
  1 11  1  0
  1 12  1  0
  2 13  1  0
  2 14  1  0
  3 15  1  0
  3 16  1  0
  4 17  1  0
  4 18  1  0
  5 19  1  0
  6 20  1  0
  6 21  1  0
  7 22  1  0
  7 23  1  0
  7 24  1  0
  8 25  1  0
M  END
>  <Energy>  (7) 
2.662743180494935

>  <Real charge>  (7) 
0

>  <Mult>  (7) 
1

$$$$
mol_778 151
     RDKit          3D

 25 24  0  0  0  0  0  0  0  0999 V2000
    3.3573    0.6767   -0.1073 C   0  0  0  0  0  0  0  0  0  0  0  0
    2.7617   -0.6267    0.4023 C   0  0  0  0  0  0  0  0  0  0  0  0
    1.3554   -0.9063   -0.1337 C   0  0  0  0  0  0  0  0  0  0  0  0
    0.3099    0.1048    0.3537 C   0  0  0  0  0  0  0  0  0  0  0  0
   -1.1190   -0.2815   -0.0649 C   0  0  0  0  0  0  0  0  0  0  0  0
   -2.1439    0.6453    0.6063 C   0  0  0  0  0  0  0  0  0  0  0  0
   -3.5807    0.1886    0.3861 C   0  0  0  0  0  0  0  0  0  0  0  0
   -1.2491   -0.1667   -1.5703 C   0  0  0  0  0  0  0  0  0  0  0  0
   -1.5319   -1.1157   -2.2952 O   0  0  0  0  0  0  0  0  0  0  0  0
    4.3944    0.7725    0.2301 H   0  0  0  0  0  0  0  0  0  0  0  0
    3.3527    0.7099   -1.2013 H   0  0  0  0  0  0  0  0  0  0  0  0
    2.8062    1.5437    0.2684 H   0  0  0  0  0  0  0  0  0  0  0  0
    2.7491   -0.6183    1.4984 H   0  0  0  0  0  0  0  0  0  0  0  0
    3.4184   -1.4511    0.0998 H   0  0  0  0  0  0  0  0  0  0  0  0
    1.3831   -0.9231   -1.2296 H   0  0  0  0  0  0  0  0  0  0  0  0
    1.0600   -1.9115    0.1912 H   0  0  0  0  0  0  0  0  0  0  0  0
    0.5499    1.1022   -0.0341 H   0  0  0  0  0  0  0  0  0  0  0  0
    0.3620    0.1636    1.4481 H   0  0  0  0  0  0  0  0  0  0  0  0
   -1.3190   -1.3203    0.2248 H   0  0  0  0  0  0  0  0  0  0  0  0
   -2.0356    1.6708    0.2319 H   0  0  0  0  0  0  0  0  0  0  0  0
   -1.9575    0.6768    1.6867 H   0  0  0  0  0  0  0  0  0  0  0  0
   -3.8504    0.2106   -0.6742 H   0  0  0  0  0  0  0  0  0  0  0  0
   -4.2710    0.8491    0.9205 H   0  0  0  0  0  0  0  0  0  0  0  0
   -3.7297   -0.8297    0.7592 H   0  0  0  0  0  0  0  0  0  0  0  0
   -1.0726    0.8362   -1.9969 H   0  0  0  0  0  0  0  0  0  0  0  0
  1  2  1  0
  2  3  1  0
  3  4  1  0
  4  5  1  0
  5  6  1  0
  6  7  1  0
  5  8  1  0
  8  9  2  0
  1 10  1  0
  1 11  1  0
  1 12  1  0
  2 13  1  0
  2 14  1  0
  3 15  1  0
  3 16  1  0
  4 17  1  0
  4 18  1  0
  5 19  1  0
  6 20  1  0
  6 21  1  0
  7 22  1  0
  7 23  1  0
  7 24  1  0
  8 25  1  0
M  END
>  <Energy>  (8) 
2.7117500587716266

>  <Real charge>  (8) 
0

>  <Mult>  (8) 
1

$$$$
mol_778 96
     RDKit          3D

 25 24  0  0  0  0  0  0  0  0999 V2000
    3.5826   -0.1455   -0.5903 C   0  0  0  0  0  0  0  0  0  0  0  0
    2.1440   -0.4969   -0.2421 C   0  0  0  0  0  0  0  0  0  0  0  0
    1.4959    0.5929    0.6125 C   0  0  0  0  0  0  0  0  0  0  0  0
    0.0880    0.2301    1.1044 C   0  0  0  0  0  0  0  0  0  0  0  0
   -0.9568    0.0255   -0.0052 C   0  0  0  0  0  0  0  0  0  0  0  0
   -2.3039   -0.3962    0.6033 C   0  0  0  0  0  0  0  0  0  0  0  0
   -3.3222   -0.8071   -0.4531 C   0  0  0  0  0  0  0  0  0  0  0  0
   -1.1361    1.3187   -0.7733 C   0  0  0  0  0  0  0  0  0  0  0  0
   -0.8984    1.4270   -1.9724 O   0  0  0  0  0  0  0  0  0  0  0  0
    4.1903   -0.0369    0.3137 H   0  0  0  0  0  0  0  0  0  0  0  0
    4.0270   -0.9344   -1.2051 H   0  0  0  0  0  0  0  0  0  0  0  0
    3.6318    0.7923   -1.1529 H   0  0  0  0  0  0  0  0  0  0  0  0
    1.5845   -0.6348   -1.1732 H   0  0  0  0  0  0  0  0  0  0  0  0
    2.1273   -1.4521    0.2950 H   0  0  0  0  0  0  0  0  0  0  0  0
    1.4687    1.5354    0.0532 H   0  0  0  0  0  0  0  0  0  0  0  0
    2.1237    0.7752    1.4939 H   0  0  0  0  0  0  0  0  0  0  0  0
    0.1554   -0.6820    1.7109 H   0  0  0  0  0  0  0  0  0  0  0  0
   -0.2488    1.0279    1.7796 H   0  0  0  0  0  0  0  0  0  0  0  0
   -0.6213   -0.7510   -0.7011 H   0  0  0  0  0  0  0  0  0  0  0  0
   -2.7252    0.4195    1.2039 H   0  0  0  0  0  0  0  0  0  0  0  0
   -2.1504   -1.2463    1.2791 H   0  0  0  0  0  0  0  0  0  0  0  0
   -4.2470   -1.1427    0.0269 H   0  0  0  0  0  0  0  0  0  0  0  0
   -2.9410   -1.6304   -1.0656 H   0  0  0  0  0  0  0  0  0  0  0  0
   -3.5727    0.0279   -1.1145 H   0  0  0  0  0  0  0  0  0  0  0  0
   -1.4953    2.1838   -0.1888 H   0  0  0  0  0  0  0  0  0  0  0  0
  1  2  1  0
  2  3  1  0
  3  4  1  0
  4  5  1  0
  5  6  1  0
  6  7  1  0
  5  8  1  0
  8  9  2  0
  1 10  1  0
  1 11  1  0
  1 12  1  0
  2 13  1  0
  2 14  1  0
  3 15  1  0
  3 16  1  0
  4 17  1  0
  4 18  1  0
  5 19  1  0
  6 20  1  0
  6 21  1  0
  7 22  1  0
  7 23  1  0
  7 24  1  0
  8 25  1  0
M  END
>  <Energy>  (9) 
2.7137737354240836

>  <Real charge>  (9) 
0

>  <Mult>  (9) 
1

$$$$
mol_778 122
     RDKit          3D

 25 24  0  0  0  0  0  0  0  0999 V2000
    3.7724   -0.0405    0.6936 C   0  0  0  0  0  0  0  0  0  0  0  0
    2.4011   -0.6896    0.5944 C   0  0  0  0  0  0  0  0  0  0  0  0
    1.2902    0.3578    0.5112 C   0  0  0  0  0  0  0  0  0  0  0  0
   -0.0902   -0.3029    0.4128 C   0  0  0  0  0  0  0  0  0  0  0  0
   -1.2260    0.7289    0.3626 C   0  0  0  0  0  0  0  0  0  0  0  0
   -2.6161    0.1108    0.5856 C   0  0  0  0  0  0  0  0  0  0  0  0
   -2.9676   -1.0524   -0.3337 C   0  0  0  0  0  0  0  0  0  0  0  0
   -1.2092    1.4734   -0.9574 C   0  0  0  0  0  0  0  0  0  0  0  0
   -1.2727    2.6965   -1.0400 O   0  0  0  0  0  0  0  0  0  0  0  0
    3.8455    0.5872    1.5875 H   0  0  0  0  0  0  0  0  0  0  0  0
    4.5513   -0.8072    0.7522 H   0  0  0  0  0  0  0  0  0  0  0  0
    3.9753    0.5837   -0.1825 H   0  0  0  0  0  0  0  0  0  0  0  0
    2.3719   -1.3346   -0.2915 H   0  0  0  0  0  0  0  0  0  0  0  0
    2.2433   -1.3315    1.4688 H   0  0  0  0  0  0  0  0  0  0  0  0
    1.3268    1.0011    1.3987 H   0  0  0  0  0  0  0  0  0  0  0  0
    1.4612    0.9998   -0.3610 H   0  0  0  0  0  0  0  0  0  0  0  0
   -0.1132   -0.9419   -0.4787 H   0  0  0  0  0  0  0  0  0  0  0  0
   -0.2322   -0.9549    1.2838 H   0  0  0  0  0  0  0  0  0  0  0  0
   -1.0663    1.4739    1.1531 H   0  0  0  0  0  0  0  0  0  0  0  0
   -2.6850   -0.2379    1.6235 H   0  0  0  0  0  0  0  0  0  0  0  0
   -3.3807    0.8889    0.4663 H   0  0  0  0  0  0  0  0  0  0  0  0
   -2.9268   -0.7599   -1.3868 H   0  0  0  0  0  0  0  0  0  0  0  0
   -3.9853   -1.3976   -0.1234 H   0  0  0  0  0  0  0  0  0  0  0  0
   -2.2951   -1.9018   -0.1818 H   0  0  0  0  0  0  0  0  0  0  0  0
   -1.1723    0.8508   -1.8678 H   0  0  0  0  0  0  0  0  0  0  0  0
  1  2  1  0
  2  3  1  0
  3  4  1  0
  4  5  1  0
  5  6  1  0
  6  7  1  0
  5  8  1  0
  8  9  2  0
  1 10  1  0
  1 11  1  0
  1 12  1  0
  2 13  1  0
  2 14  1  0
  3 15  1  0
  3 16  1  0
  4 17  1  0
  4 18  1  0
  5 19  1  0
  6 20  1  0
  6 21  1  0
  7 22  1  0
  7 23  1  0
  7 24  1  0
  8 25  1  0
M  END
>  <Energy>  (10) 
2.7906375596132422

>  <Real charge>  (10) 
0

>  <Mult>  (10) 
1

$$$$
mol_778 201
     RDKit          3D

 25 24  0  0  0  0  0  0  0  0999 V2000
    3.3909    0.5624   -0.3263 C   0  0  0  0  0  0  0  0  0  0  0  0
    2.7458   -0.4314    0.6272 C   0  0  0  0  0  0  0  0  0  0  0  0
    1.3510   -0.8854    0.1888 C   0  0  0  0  0  0  0  0  0  0  0  0
    0.3116    0.2427    0.2098 C   0  0  0  0  0  0  0  0  0  0  0  0
   -1.0950   -0.2486   -0.1735 C   0  0  0  0  0  0  0  0  0  0  0  0
   -2.0482    0.9423   -0.3573 C   0  0  0  0  0  0  0  0  0  0  0  0
   -3.4000    0.5300   -0.9267 C   0  0  0  0  0  0  0  0  0  0  0  0
   -1.6287   -1.1506    0.9212 C   0  0  0  0  0  0  0  0  0  0  0  0
   -1.9436   -2.3218    0.7336 O   0  0  0  0  0  0  0  0  0  0  0  0
    3.4190    0.1673   -1.3466 H   0  0  0  0  0  0  0  0  0  0  0  0
    2.8536    1.5151   -0.3378 H   0  0  0  0  0  0  0  0  0  0  0  0
    4.4200    0.7676   -0.0143 H   0  0  0  0  0  0  0  0  0  0  0  0
    3.3915   -1.3151    0.6960 H   0  0  0  0  0  0  0  0  0  0  0  0
    2.6979    0.0046    1.6318 H   0  0  0  0  0  0  0  0  0  0  0  0
    1.0333   -1.6903    0.8619 H   0  0  0  0  0  0  0  0  0  0  0  0
    1.4055   -1.3181   -0.8176 H   0  0  0  0  0  0  0  0  0  0  0  0
    0.2922    0.7002    1.2072 H   0  0  0  0  0  0  0  0  0  0  0  0
    0.6167    1.0234   -0.4965 H   0  0  0  0  0  0  0  0  0  0  0  0
   -1.0418   -0.8239   -1.1058 H   0  0  0  0  0  0  0  0  0  0  0  0
   -2.2070    1.4567    0.5986 H   0  0  0  0  0  0  0  0  0  0  0  0
   -1.5975    1.6706   -1.0425 H   0  0  0  0  0  0  0  0  0  0  0  0
   -3.9345   -0.1397   -0.2462 H   0  0  0  0  0  0  0  0  0  0  0  0
   -3.2812    0.0217   -1.8889 H   0  0  0  0  0  0  0  0  0  0  0  0
   -4.0259    1.4138   -1.0861 H   0  0  0  0  0  0  0  0  0  0  0  0
   -1.7257   -0.6935    1.9215 H   0  0  0  0  0  0  0  0  0  0  0  0
  1  2  1  0
  2  3  1  0
  3  4  1  0
  4  5  1  0
  5  6  1  0
  6  7  1  0
  5  8  1  0
  8  9  2  0
  1 10  1  0
  1 11  1  0
  1 12  1  0
  2 13  1  0
  2 14  1  0
  3 15  1  0
  3 16  1  0
  4 17  1  0
  4 18  1  0
  5 19  1  0
  6 20  1  0
  6 21  1  0
  7 22  1  0
  7 23  1  0
  7 24  1  0
  8 25  1  0
M  END
>  <Energy>  (11) 
2.8285850905660226

>  <Real charge>  (11) 
0

>  <Mult>  (11) 
1

$$$$
mol_778 157
     RDKit          3D

 25 24  0  0  0  0  0  0  0  0999 V2000
    3.6266   -0.4532    0.0125 C   0  0  0  0  0  0  0  0  0  0  0  0
    2.4204   -0.3802    0.9353 C   0  0  0  0  0  0  0  0  0  0  0  0
    1.1174   -0.2431    0.1450 C   0  0  0  0  0  0  0  0  0  0  0  0
   -0.0921   -0.1655    1.0845 C   0  0  0  0  0  0  0  0  0  0  0  0
   -1.4608   -0.0776    0.3867 C   0  0  0  0  0  0  0  0  0  0  0  0
   -1.5509    1.0671   -0.6305 C   0  0  0  0  0  0  0  0  0  0  0  0
   -2.9844    1.3410   -1.0696 C   0  0  0  0  0  0  0  0  0  0  0  0
   -1.7783   -1.4035   -0.2753 C   0  0  0  0  0  0  0  0  0  0  0  0
   -2.5569   -2.2236    0.2021 O   0  0  0  0  0  0  0  0  0  0  0  0
    3.5565   -1.3163   -0.6572 H   0  0  0  0  0  0  0  0  0  0  0  0
    4.5462   -0.5513    0.5979 H   0  0  0  0  0  0  0  0  0  0  0  0
    3.7080    0.4510   -0.5992 H   0  0  0  0  0  0  0  0  0  0  0  0
    2.5370    0.4740    1.6124 H   0  0  0  0  0  0  0  0  0  0  0  0
    2.3871   -1.2839    1.5548 H   0  0  0  0  0  0  0  0  0  0  0  0
    1.1701    0.6592   -0.4747 H   0  0  0  0  0  0  0  0  0  0  0  0
    1.0147   -1.0986   -0.5318 H   0  0  0  0  0  0  0  0  0  0  0  0
    0.0234    0.7124    1.7334 H   0  0  0  0  0  0  0  0  0  0  0  0
   -0.0861   -1.0429    1.7445 H   0  0  0  0  0  0  0  0  0  0  0  0
   -2.2176    0.0794    1.1666 H   0  0  0  0  0  0  0  0  0  0  0  0
   -1.1449    1.9844   -0.1877 H   0  0  0  0  0  0  0  0  0  0  0  0
   -0.9539    0.8431   -1.5225 H   0  0  0  0  0  0  0  0  0  0  0  0
   -3.6155    1.5953   -0.2121 H   0  0  0  0  0  0  0  0  0  0  0  0
   -3.4206    0.4732   -1.5737 H   0  0  0  0  0  0  0  0  0  0  0  0
   -3.0091    2.1830   -1.7687 H   0  0  0  0  0  0  0  0  0  0  0  0
   -1.2364   -1.6234   -1.2112 H   0  0  0  0  0  0  0  0  0  0  0  0
  1  2  1  0
  2  3  1  0
  3  4  1  0
  4  5  1  0
  5  6  1  0
  6  7  1  0
  5  8  1  0
  8  9  2  0
  1 10  1  0
  1 11  1  0
  1 12  1  0
  2 13  1  0
  2 14  1  0
  3 15  1  0
  3 16  1  0
  4 17  1  0
  4 18  1  0
  5 19  1  0
  6 20  1  0
  6 21  1  0
  7 22  1  0
  7 23  1  0
  7 24  1  0
  8 25  1  0
M  END
>  <Energy>  (12) 
2.8492040439816324

>  <Real charge>  (12) 
0

>  <Mult>  (12) 
1

$$$$
