mol_91 39
     RDKit          3D

 14 14  0  0  0  0  0  0  0  0999 V2000
    2.9569   -0.0758    0.8497 O   0  0  0  0  0  1  0  0  0  0  0  0
    2.2530   -0.5314   -0.0596 N   0  0  0  0  0  4  0  0  0  0  0  0
    2.6302   -1.2699   -0.9776 O   0  0  0  0  0  0  0  0  0  0  0  0
    0.8467   -0.2174   -0.0156 C   0  0  0  0  0  0  0  0  0  0  0  0
    0.3841    1.0009   -0.5184 C   0  0  0  0  0  0  0  0  0  0  0  0
    1.4648    2.1565   -1.2238 Cl  0  0  0  0  0  0  0  0  0  0  0  0
   -0.9924    1.2524   -0.4430 C   0  0  0  0  0  0  0  0  0  0  0  0
   -1.7013    2.7185   -1.0269 Cl  0  0  0  0  0  0  0  0  0  0  0  0
   -1.8610    0.3032    0.1186 C   0  0  0  0  0  0  0  0  0  0  0  0
   -1.3711   -0.9086    0.6103 C   0  0  0  0  0  0  0  0  0  0  0  0
   -0.0077   -1.1772    0.5452 C   0  0  0  0  0  0  0  0  0  0  0  0
   -2.9296    0.5060    0.1733 H   0  0  0  0  0  0  0  0  0  0  0  0
   -2.0544   -1.6377    1.0419 H   0  0  0  0  0  0  0  0  0  0  0  0
    0.3816   -2.1196    0.9260 H   0  0  0  0  0  0  0  0  0  0  0  0
  1  2  1  0
  2  3  2  0
  2  4  1  0
  4  5  2  0
  5  6  1  0
  5  7  1  0
  7  8  1  0
  7  9  2  0
  9 10  1  0
 10 11  2  0
 11  4  1  0
  9 12  1  0
 10 13  1  0
 11 14  1  0
M  CHG  2   1  -1   2   1
M  END
>  <Energy>  (1) 
37.247118181072885

>  <Real charge>  (1) 
0

>  <Mult>  (1) 
1

$$$$
