mol_936 40
     RDKit          3D

 18 19  0  0  0  0  0  0  0  0999 V2000
    2.3553   -0.5012    0.1255 C   0  0  0  0  0  0  0  0  0  0  0  0
    2.2613    0.8983    0.1977 C   0  0  0  0  0  0  0  0  0  0  0  0
    1.0198    1.5347    0.1069 C   0  0  0  0  0  0  0  0  0  0  0  0
   -0.1108    0.7519   -0.0296 C   0  0  0  0  0  0  0  0  0  0  0  0
   -1.4350    1.2258   -0.2031 N   0  0  0  0  0  0  0  0  0  0  0  0
   -2.2410    0.0097    0.0076 C   0  0  0  0  0  0  0  0  0  0  0  0
   -1.3675   -1.2076   -0.3485 C   0  0  0  0  0  0  0  0  0  0  0  0
   -0.0111   -0.6363   -0.1219 C   0  0  0  0  0  0  0  0  0  0  0  0
    1.2105   -1.2822   -0.0455 C   0  0  0  0  0  0  0  0  0  0  0  0
    3.3304   -0.9781    0.1881 H   0  0  0  0  0  0  0  0  0  0  0  0
    3.1640    1.4931    0.3115 H   0  0  0  0  0  0  0  0  0  0  0  0
    0.9501    2.6161    0.1345 H   0  0  0  0  0  0  0  0  0  0  0  0
   -1.6358    1.9875    0.4396 H   0  0  0  0  0  0  0  0  0  0  0  0
   -2.5428   -0.0397    1.0625 H   0  0  0  0  0  0  0  0  0  0  0  0
   -3.1533    0.0381   -0.5969 H   0  0  0  0  0  0  0  0  0  0  0  0
   -1.4892   -1.4864   -1.4003 H   0  0  0  0  0  0  0  0  0  0  0  0
   -1.5871   -2.0624    0.2968 H   0  0  0  0  0  0  0  0  0  0  0  0
    1.2821   -2.3615   -0.1247 H   0  0  0  0  0  0  0  0  0  0  0  0
  1  2  2  0
  2  3  1  0
  3  4  2  0
  4  5  1  0
  5  6  1  0
  6  7  1  0
  7  8  1  0
  8  9  2  0
  8  4  1  0
  9  1  1  0
  1 10  1  0
  2 11  1  0
  3 12  1  0
  5 13  1  0
  6 14  1  0
  6 15  1  0
  7 16  1  0
  7 17  1  0
  9 18  1  0
M  END
>  <Energy>  (1) 
22.438266523866524

>  <Real charge>  (1) 
0

>  <Mult>  (1) 
1

$$$$
