mol_863 31
     RDKit          3D

 22 23  0  0  0  0  0  0  0  0999 V2000
    5.2108   -0.7648   -0.5739 Cl  0  0  0  0  0  0  0  0  0  0  0  0
    3.5016   -0.5346   -0.4835 C   0  0  0  0  0  0  0  0  0  0  0  0
    2.9715   -0.0588    0.7181 C   0  0  0  0  0  0  0  0  0  0  0  0
    1.5951    0.1483    0.8473 C   0  0  0  0  0  0  0  0  0  0  0  0
    0.7275   -0.1198   -0.2218 C   0  0  0  0  0  0  0  0  0  0  0  0
    1.2706   -0.5949   -1.4262 C   0  0  0  0  0  0  0  0  0  0  0  0
    2.6489   -0.8031   -1.5584 C   0  0  0  0  0  0  0  0  0  0  0  0
    3.2285   -1.3894   -3.0770 Cl  0  0  0  0  0  0  0  0  0  0  0  0
   -0.7199    0.1013   -0.0881 C   0  0  0  0  0  0  0  0  0  0  0  0
   -1.2487    1.3345   -0.5009 C   0  0  0  0  0  0  0  0  0  0  0  0
   -2.6157    1.6058   -0.3981 C   0  0  0  0  0  0  0  0  0  0  0  0
   -3.1479    3.1612   -0.9378 Cl  0  0  0  0  0  0  0  0  0  0  0  0
   -3.4918    0.6444    0.1228 C   0  0  0  0  0  0  0  0  0  0  0  0
   -5.1900    0.9975    0.2455 Cl  0  0  0  0  0  0  0  0  0  0  0  0
   -2.9833   -0.5992    0.5417 C   0  0  0  0  0  0  0  0  0  0  0  0
   -4.0582   -1.8062    1.1919 Cl  0  0  0  0  0  0  0  0  0  0  0  0
   -1.6023   -0.8686    0.4357 C   0  0  0  0  0  0  0  0  0  0  0  0
   -0.9593   -2.4057    0.9453 Cl  0  0  0  0  0  0  0  0  0  0  0  0
    3.6254    0.1515    1.5616 H   0  0  0  0  0  0  0  0  0  0  0  0
    1.2043    0.5160    1.7951 H   0  0  0  0  0  0  0  0  0  0  0  0
    0.6148   -0.8110   -2.2681 H   0  0  0  0  0  0  0  0  0  0  0  0
   -0.5819    2.0954   -0.9079 H   0  0  0  0  0  0  0  0  0  0  0  0
  1  2  1  0
  2  3  2  0
  3  4  1  0
  4  5  2  0
  5  6  1  0
  6  7  2  0
  7  8  1  0
  5  9  1  0
  9 10  2  0
 10 11  1  0
 11 12  1  0
 11 13  2  0
 13 14  1  0
 13 15  1  0
 15 16  1  0
 15 17  2  0
 17 18  1  0
  7  2  1  0
 17  9  1  0
  3 19  1  0
  4 20  1  0
  6 21  1  0
 10 22  1  0
M  END
>  <Energy>  (1) 
60.36667994449718

>  <Real charge>  (1) 
0

>  <Mult>  (1) 
1

$$$$
