mol_365 568
     RDKit          3D

 56 59  0  0  0  0  0  0  0  0999 V2000
   -2.2643   -1.8777   -0.7527 C   0  0  0  0  0  0  0  0  0  0  0  0
   -2.0059   -0.5941    0.0604 C   0  0  0  0  0  0  0  0  0  0  0  0
   -1.4849    0.5184   -0.8724 C   0  0  0  0  0  0  0  0  0  0  0  0
   -0.0598    0.2934   -1.3926 C   0  0  0  0  0  0  0  0  0  0  0  0
    0.2657    1.4381   -2.1738 O   0  0  0  0  0  0  0  0  0  0  0  0
    0.9631    0.1124   -0.2392 C   0  0  0  0  0  0  0  0  0  0  0  0
    0.4731   -1.0228    0.7060 C   0  0  0  0  0  0  0  0  0  0  0  0
    1.4199   -1.1961    1.9012 C   0  0  0  0  0  0  0  0  0  0  0  0
    2.8298   -1.5175    1.4373 C   0  0  0  0  0  0  0  0  0  0  0  0
    3.3519   -0.4488    0.5104 C   0  0  0  0  0  0  0  0  0  0  0  0
    4.5436    0.1163    0.7750 C   0  0  0  0  0  0  0  0  0  0  0  0
    5.1748    1.0794   -0.1522 C   0  0  0  0  0  0  0  0  0  0  0  0
    6.2417    1.6052    0.1546 O   0  0  0  0  0  0  0  0  0  0  0  0
    4.5186    1.2994   -1.4852 C   0  0  0  0  0  0  0  0  0  0  0  0
    3.0037    1.2250   -1.3532 C   0  0  0  0  0  0  0  0  0  0  0  0
    2.4746   -0.0918   -0.7042 C   0  0  0  0  0  0  0  0  0  0  0  0
    2.6028   -1.2351   -1.7368 C   0  0  0  0  0  0  0  0  0  0  0  0
   -0.9830   -0.8521    1.1903 C   0  0  0  0  0  0  0  0  0  0  0  0
   -1.2240    0.2970    2.1849 C   0  0  0  0  0  0  0  0  0  0  0  0
   -2.6827    0.7393    1.9991 C   0  0  0  0  0  0  0  0  0  0  0  0
   -3.2537   -0.1455    0.8843 C   0  0  0  0  0  0  0  0  0  0  0  0
   -3.8320   -1.2894    1.5438 O   0  0  0  0  0  0  0  0  0  0  0  0
   -4.3859    0.4632    0.0381 C   0  0  0  0  0  0  0  0  0  0  0  0
   -5.1936   -0.2787   -0.5397 O   0  0  0  0  0  0  0  0  0  0  0  0
   -4.5285    1.9747   -0.0657 C   0  0  0  0  0  0  0  0  0  0  0  0
   -5.4387    2.3370   -1.0954 O   0  0  0  0  0  0  0  0  0  0  0  0
   -3.0476   -1.7170   -1.5008 H   0  0  0  0  0  0  0  0  0  0  0  0
   -1.3702   -2.2155   -1.2850 H   0  0  0  0  0  0  0  0  0  0  0  0
   -2.5782   -2.7102   -0.1142 H   0  0  0  0  0  0  0  0  0  0  0  0
   -2.1626    0.6393   -1.7283 H   0  0  0  0  0  0  0  0  0  0  0  0
   -1.4993    1.4916   -0.3655 H   0  0  0  0  0  0  0  0  0  0  0  0
   -0.0394   -0.5750   -2.0579 H   0  0  0  0  0  0  0  0  0  0  0  0
   -0.3311    1.4584   -2.9427 H   0  0  0  0  0  0  0  0  0  0  0  0
    0.9582    1.0475    0.3405 H   0  0  0  0  0  0  0  0  0  0  0  0
    0.4974   -1.9618    0.1369 H   0  0  0  0  0  0  0  0  0  0  0  0
    1.0633   -2.0089    2.5454 H   0  0  0  0  0  0  0  0  0  0  0  0
    1.4378   -0.2869    2.5150 H   0  0  0  0  0  0  0  0  0  0  0  0
    3.4732   -1.6329    2.3183 H   0  0  0  0  0  0  0  0  0  0  0  0
    2.8427   -2.4841    0.9194 H   0  0  0  0  0  0  0  0  0  0  0  0
    5.1370   -0.1387    1.6465 H   0  0  0  0  0  0  0  0  0  0  0  0
    4.9007    0.5560   -2.1920 H   0  0  0  0  0  0  0  0  0  0  0  0
    4.7988    2.2934   -1.8513 H   0  0  0  0  0  0  0  0  0  0  0  0
    2.5904    1.3574   -2.3582 H   0  0  0  0  0  0  0  0  0  0  0  0
    2.6719    2.0849   -0.7552 H   0  0  0  0  0  0  0  0  0  0  0  0
    2.1386   -2.1628   -1.3881 H   0  0  0  0  0  0  0  0  0  0  0  0
    2.1321   -0.9705   -2.6896 H   0  0  0  0  0  0  0  0  0  0  0  0
    3.6523   -1.4667   -1.9532 H   0  0  0  0  0  0  0  0  0  0  0  0
   -1.2595   -1.7828    1.7088 H   0  0  0  0  0  0  0  0  0  0  0  0
   -0.5615    1.1494    2.0025 H   0  0  0  0  0  0  0  0  0  0  0  0
   -1.0447   -0.0337    3.2140 H   0  0  0  0  0  0  0  0  0  0  0  0
   -2.6919    1.8049    1.7525 H   0  0  0  0  0  0  0  0  0  0  0  0
   -3.2362    0.6207    2.9379 H   0  0  0  0  0  0  0  0  0  0  0  0
   -4.4265   -1.7170    0.8932 H   0  0  0  0  0  0  0  0  0  0  0  0
   -4.9086    2.3625    0.8830 H   0  0  0  0  0  0  0  0  0  0  0  0
   -3.5695    2.4367   -0.3014 H   0  0  0  0  0  0  0  0  0  0  0  0
   -6.0941    1.6125   -1.1530 H   0  0  0  0  0  0  0  0  0  0  0  0
  1  2  1  0
  2  3  1  0
  3  4  1  0
  4  5  1  0
  4  6  1  0
  6  7  1  0
  7  8  1  0
  8  9  1  0
  9 10  1  0
 10 11  2  0
 11 12  1  0
 12 13  2  0
 12 14  1  0
 14 15  1  0
 15 16  1  0
 16 17  1  0
  7 18  1  0
 18 19  1  0
 19 20  1  0
 20 21  1  0
 21 22  1  0
 21 23  1  0
 23 24  2  0
 23 25  1  0
 25 26  1  0
 21  2  1  0
 18  2  1  0
 16  6  1  0
 16 10  1  0
  1 27  1  0
  1 28  1  0
  1 29  1  0
  3 30  1  0
  3 31  1  0
  4 32  1  0
  5 33  1  0
  6 34  1  0
  7 35  1  0
  8 36  1  0
  8 37  1  0
  9 38  1  0
  9 39  1  0
 11 40  1  0
 14 41  1  0
 14 42  1  0
 15 43  1  0
 15 44  1  0
 17 45  1  0
 17 46  1  0
 17 47  1  0
 18 48  1  0
 19 49  1  0
 19 50  1  0
 20 51  1  0
 20 52  1  0
 22 53  1  0
 25 54  1  0
 25 55  1  0
 26 56  1  0
M  END
>  <Energy>  (1) 
120.53132286249492

>  <Real charge>  (1) 
0

>  <Mult>  (1) 
1

$$$$
