mol_787 28
     RDKit          3D

 13 12  0  0  0  0  0  0  0  0999 V2000
    1.8080    0.3748   -0.7521 C   0  0  0  0  0  0  0  0  0  0  0  0
    0.3628   -0.0975   -0.7705 C   0  0  0  0  0  0  0  0  0  0  0  0
   -0.3247    0.1496    0.5709 C   0  0  0  0  0  0  0  0  0  0  0  0
   -1.7211   -0.3101    0.5434 C   0  0  0  0  0  0  0  0  0  0  0  0
   -2.8619   -0.6845    0.5243 C   0  0  0  0  0  0  0  0  0  0  0  0
    2.3840   -0.1546    0.0136 H   0  0  0  0  0  0  0  0  0  0  0  0
    1.8673    1.4484   -0.5465 H   0  0  0  0  0  0  0  0  0  0  0  0
    2.2801    0.1882   -1.7218 H   0  0  0  0  0  0  0  0  0  0  0  0
    0.3364   -1.1665   -1.0155 H   0  0  0  0  0  0  0  0  0  0  0  0
   -0.1763    0.4240   -1.5712 H   0  0  0  0  0  0  0  0  0  0  0  0
   -0.2968    1.2187    0.8117 H   0  0  0  0  0  0  0  0  0  0  0  0
    0.2164   -0.3735    1.3680 H   0  0  0  0  0  0  0  0  0  0  0  0
   -3.8743   -1.0169    0.5071 H   0  0  0  0  0  0  0  0  0  0  0  0
  1  2  1  0
  2  3  1  0
  3  4  1  0
  4  5  3  0
  1  6  1  0
  1  7  1  0
  1  8  1  0
  2  9  1  0
  2 10  1  0
  3 11  1  0
  3 12  1  0
  5 13  1  0
M  END
>  <Energy>  (1) 
0.37352925455581354

>  <Real charge>  (1) 
0

>  <Mult>  (1) 
1

$$$$
mol_787 97
     RDKit          3D

 13 12  0  0  0  0  0  0  0  0999 V2000
   -1.1227    0.9418    0.5305 C   0  0  0  0  0  0  0  0  0  0  0  0
   -0.9628   -0.3203   -0.3068 C   0  0  0  0  0  0  0  0  0  0  0  0
    0.3400   -0.3468   -1.1057 C   0  0  0  0  0  0  0  0  0  0  0  0
    1.5211   -0.5002   -0.2428 C   0  0  0  0  0  0  0  0  0  0  0  0
    2.4883   -0.6262    0.4578 C   0  0  0  0  0  0  0  0  0  0  0  0
   -1.0748    1.8373   -0.0974 H   0  0  0  0  0  0  0  0  0  0  0  0
   -0.3453    1.0161    1.2970 H   0  0  0  0  0  0  0  0  0  0  0  0
   -2.0929    0.9359    1.0375 H   0  0  0  0  0  0  0  0  0  0  0  0
   -1.0282   -1.1991    0.3462 H   0  0  0  0  0  0  0  0  0  0  0  0
   -1.8045   -0.3788   -1.0073 H   0  0  0  0  0  0  0  0  0  0  0  0
    0.3045   -1.1871   -1.8091 H   0  0  0  0  0  0  0  0  0  0  0  0
    0.4309    0.5653   -1.7067 H   0  0  0  0  0  0  0  0  0  0  0  0
    3.3463   -0.7379    1.0798 H   0  0  0  0  0  0  0  0  0  0  0  0
  1  2  1  0
  2  3  1  0
  3  4  1  0
  4  5  3  0
  1  6  1  0
  1  7  1  0
  1  8  1  0
  2  9  1  0
  2 10  1  0
  3 11  1  0
  3 12  1  0
  5 13  1  0
M  END
>  <Energy>  (2) 
0.3865208670779887

>  <Real charge>  (2) 
0

>  <Mult>  (2) 
1

$$$$
