mol_639 15
     RDKit          3D

  8  7  0  0  0  0  0  0  0  0999 V2000
   -0.7954    0.0729    0.0209 C   0  0  0  0  0  0  0  0  0  0  0  0
    0.6765   -0.2602   -0.0531 C   0  0  0  0  0  0  0  0  0  0  0  0
    1.7336    1.3483    0.2228 Br  0  0  0  0  0  0  0  0  0  0  0  0
   -1.0779    0.8027   -0.7452 H   0  0  0  0  0  0  0  0  0  0  0  0
   -1.3959   -0.8290   -0.1337 H   0  0  0  0  0  0  0  0  0  0  0  0
   -1.0606    0.4925    0.9971 H   0  0  0  0  0  0  0  0  0  0  0  0
    0.9686   -0.9701    0.7248 H   0  0  0  0  0  0  0  0  0  0  0  0
    0.9511   -0.6570   -1.0336 H   0  0  0  0  0  0  0  0  0  0  0  0
  1  2  1  0
  2  3  1  0
  1  4  1  0
  1  5  1  0
  1  6  1  0
  2  7  1  0
  2  8  1  0
M  END
>  <Energy>  (1) 
-1.8444270481499077

>  <Real charge>  (1) 
0

>  <Mult>  (1) 
1

$$$$
