mol_974 11
     RDKit          3D

 16 16  0  0  0  0  0  0  0  0999 V2000
   -1.5708    2.4743    0.9662 O   0  0  0  0  0  1  0  0  0  0  0  0
   -1.6174    1.5127    0.1894 N   0  0  0  0  0  4  0  0  0  0  0  0
   -2.5771    1.2026   -0.5264 O   0  0  0  0  0  0  0  0  0  0  0  0
   -0.4163    0.7131    0.0565 C   0  0  0  0  0  0  0  0  0  0  0  0
    0.7903    1.3733   -0.2121 C   0  0  0  0  0  0  0  0  0  0  0  0
    1.9491    0.6214   -0.4219 C   0  0  0  0  0  0  0  0  0  0  0  0
    1.9041   -0.7755   -0.3689 C   0  0  0  0  0  0  0  0  0  0  0  0
    0.7023   -1.4330   -0.0941 C   0  0  0  0  0  0  0  0  0  0  0  0
   -0.4583   -0.6781    0.1230 C   0  0  0  0  0  0  0  0  0  0  0  0
   -1.6722   -1.3811    0.4856 N   0  0  0  0  0  4  0  0  0  0  0  0
   -2.0087   -2.3312   -0.2316 O   0  0  0  0  0  1  0  0  0  0  0  0
   -2.2464   -1.0097    1.5162 O   0  0  0  0  0  0  0  0  0  0  0  0
    0.8350    2.4599   -0.2696 H   0  0  0  0  0  0  0  0  0  0  0  0
    2.8916    1.1244   -0.6337 H   0  0  0  0  0  0  0  0  0  0  0  0
    2.8124   -1.3525   -0.5368 H   0  0  0  0  0  0  0  0  0  0  0  0
    0.6826   -2.5205   -0.0418 H   0  0  0  0  0  0  0  0  0  0  0  0
  1  2  1  0
  2  3  2  0
  2  4  1  0
  4  5  2  0
  5  6  1  0
  6  7  2  0
  7  8  1  0
  8  9  2  0
  9 10  1  0
 10 11  1  0
 10 12  2  0
  9  4  1  0
  5 13  1  0
  6 14  1  0
  7 15  1  0
  8 16  1  0
M  CHG  4   1  -1   2   1  10   1  11  -1
M  END
>  <Energy>  (1) 
33.67810858464289

>  <Real charge>  (1) 
0

>  <Mult>  (1) 
1

$$$$
