mol_766 17
     RDKit          3D

 23 25  0  0  0  0  0  0  0  0999 V2000
   -3.4977    0.1377    0.2912 C   0  0  0  0  0  0  0  0  0  0  0  0
   -2.8647    1.3582    0.1030 C   0  0  0  0  0  0  0  0  0  0  0  0
   -1.4727    1.4124   -0.0248 C   0  0  0  0  0  0  0  0  0  0  0  0
   -0.6654    0.2476    0.0313 C   0  0  0  0  0  0  0  0  0  0  0  0
   -1.3370   -0.9779    0.2234 C   0  0  0  0  0  0  0  0  0  0  0  0
   -2.7379   -1.0269    0.3514 C   0  0  0  0  0  0  0  0  0  0  0  0
   -0.5686   -2.1343    0.2820 C   0  0  0  0  0  0  0  0  0  0  0  0
    0.7753   -2.1736    0.1687 N   0  0  0  0  0  0  0  0  0  0  0  0
    1.4224   -1.0159   -0.0140 C   0  0  0  0  0  0  0  0  0  0  0  0
    2.8051   -1.0683   -0.1293 C   0  0  0  0  0  0  0  0  0  0  0  0
    3.5763    0.0780   -0.3215 C   0  0  0  0  0  0  0  0  0  0  0  0
    2.9535    1.3128   -0.4014 C   0  0  0  0  0  0  0  0  0  0  0  0
    1.5649    1.3912   -0.2884 C   0  0  0  0  0  0  0  0  0  0  0  0
    0.7651    0.2350   -0.0926 C   0  0  0  0  0  0  0  0  0  0  0  0
   -4.5788    0.0912    0.3909 H   0  0  0  0  0  0  0  0  0  0  0  0
   -3.4494    2.2735    0.0546 H   0  0  0  0  0  0  0  0  0  0  0  0
   -1.0262    2.3922   -0.1705 H   0  0  0  0  0  0  0  0  0  0  0  0
   -3.2451   -1.9782    0.4993 H   0  0  0  0  0  0  0  0  0  0  0  0
   -1.0287   -3.1085    0.4283 H   0  0  0  0  0  0  0  0  0  0  0  0
    3.2982   -2.0360   -0.0672 H   0  0  0  0  0  0  0  0  0  0  0  0
    4.6565   -0.0015   -0.4074 H   0  0  0  0  0  0  0  0  0  0  0  0
    3.5416    2.2145   -0.5510 H   0  0  0  0  0  0  0  0  0  0  0  0
    1.1132    2.3766   -0.3561 H   0  0  0  0  0  0  0  0  0  0  0  0
  1  2  2  0
  2  3  1  0
  3  4  2  0
  4  5  1  0
  5  6  2  0
  5  7  1  0
  7  8  2  0
  8  9  1  0
  9 10  2  0
 10 11  1  0
 11 12  2  0
 12 13  1  0
 13 14  2  0
  6  1  1  0
 14  4  1  0
 14  9  1  0
  1 15  1  0
  2 16  1  0
  3 17  1  0
  6 18  1  0
  7 19  1  0
 10 20  1  0
 11 21  1  0
 12 22  1  0
 13 23  1  0
M  END
>  <Energy>  (1) 
57.75895178479406

>  <Real charge>  (1) 
0

>  <Mult>  (1) 
1

$$$$
