mol_614 315
     RDKit          3D

 30 29  0  0  0  0  0  0  0  0999 V2000
   -5.2573    0.4792    0.3756 C   0  0  0  0  0  0  0  0  0  0  0  0
   -4.0476   -0.0181   -0.3997 C   0  0  0  0  0  0  0  0  0  0  0  0
   -2.7419    0.3400    0.3096 C   0  0  0  0  0  0  0  0  0  0  0  0
   -1.5276   -0.1620   -0.4734 C   0  0  0  0  0  0  0  0  0  0  0  0
   -0.2209    0.1963    0.2363 C   0  0  0  0  0  0  0  0  0  0  0  0
    0.9934   -0.3057   -0.5468 C   0  0  0  0  0  0  0  0  0  0  0  0
    2.3001    0.0525    0.1629 C   0  0  0  0  0  0  0  0  0  0  0  0
    3.5124   -0.4485   -0.6188 C   0  0  0  0  0  0  0  0  0  0  0  0
    4.8173   -0.0959    0.0811 C   0  0  0  0  0  0  0  0  0  0  0  0
    5.9018   -0.5880   -0.6939 O   0  0  0  0  0  0  0  0  0  0  0  0
   -6.1798    0.2124   -0.1494 H   0  0  0  0  0  0  0  0  0  0  0  0
   -5.2936    0.0329    1.3745 H   0  0  0  0  0  0  0  0  0  0  0  0
   -5.2319    1.5680    0.4861 H   0  0  0  0  0  0  0  0  0  0  0  0
   -4.1200   -1.1052   -0.5204 H   0  0  0  0  0  0  0  0  0  0  0  0
   -4.0587    0.4214   -1.4039 H   0  0  0  0  0  0  0  0  0  0  0  0
   -2.6764    1.4281    0.4315 H   0  0  0  0  0  0  0  0  0  0  0  0
   -2.7378   -0.0985    1.3150 H   0  0  0  0  0  0  0  0  0  0  0  0
   -1.5319    0.2767   -1.4787 H   0  0  0  0  0  0  0  0  0  0  0  0
   -1.5932   -1.2500   -0.5951 H   0  0  0  0  0  0  0  0  0  0  0  0
   -0.1553    1.2844    0.3580 H   0  0  0  0  0  0  0  0  0  0  0  0
   -0.2167   -0.2424    1.2416 H   0  0  0  0  0  0  0  0  0  0  0  0
    0.9278   -1.3937   -0.6685 H   0  0  0  0  0  0  0  0  0  0  0  0
    0.9891    0.1330   -1.5520 H   0  0  0  0  0  0  0  0  0  0  0  0
    2.3657    1.1406    0.2846 H   0  0  0  0  0  0  0  0  0  0  0  0
    2.3044   -0.3861    1.1682 H   0  0  0  0  0  0  0  0  0  0  0  0
    3.5157   -0.0216   -1.6296 H   0  0  0  0  0  0  0  0  0  0  0  0
    3.4549   -1.5360   -0.7532 H   0  0  0  0  0  0  0  0  0  0  0  0
    4.9256    0.9887    0.1823 H   0  0  0  0  0  0  0  0  0  0  0  0
    4.8636   -0.5532    1.0746 H   0  0  0  0  0  0  0  0  0  0  0  0
    6.7192   -0.3491   -0.2245 H   0  0  0  0  0  0  0  0  0  0  0  0
  1  2  1  0
  2  3  1  0
  3  4  1  0
  4  5  1  0
  5  6  1  0
  6  7  1  0
  7  8  1  0
  8  9  1  0
  9 10  1  0
  1 11  1  0
  1 12  1  0
  1 13  1  0
  2 14  1  0
  2 15  1  0
  3 16  1  0
  3 17  1  0
  4 18  1  0
  4 19  1  0
  5 20  1  0
  5 21  1  0
  6 22  1  0
  6 23  1  0
  7 24  1  0
  7 25  1  0
  8 26  1  0
  8 27  1  0
  9 28  1  0
  9 29  1  0
 10 30  1  0
M  END
>  <Energy>  (1) 
-3.035662746739483

>  <Real charge>  (1) 
0

>  <Mult>  (1) 
1

$$$$
mol_614 141
     RDKit          3D

 30 29  0  0  0  0  0  0  0  0999 V2000
    5.1998    0.1566   -0.3252 C   0  0  0  0  0  0  0  0  0  0  0  0
    3.9117   -0.6507   -0.3488 C   0  0  0  0  0  0  0  0  0  0  0  0
    2.6863    0.2446   -0.1668 C   0  0  0  0  0  0  0  0  0  0  0  0
    1.3927   -0.5713   -0.1911 C   0  0  0  0  0  0  0  0  0  0  0  0
    0.1664    0.3245   -0.0089 C   0  0  0  0  0  0  0  0  0  0  0  0
   -1.1273   -0.4914   -0.0332 C   0  0  0  0  0  0  0  0  0  0  0  0
   -2.3543    0.4048    0.1486 C   0  0  0  0  0  0  0  0  0  0  0  0
   -3.6478   -0.4145    0.1251 C   0  0  0  0  0  0  0  0  0  0  0  0
   -4.8969    0.4542    0.2267 C   0  0  0  0  0  0  0  0  0  0  0  0
   -4.9758    1.0905    1.4940 O   0  0  0  0  0  0  0  0  0  0  0  0
    6.0631   -0.5032   -0.4571 H   0  0  0  0  0  0  0  0  0  0  0  0
    5.3162    0.6819    0.6281 H   0  0  0  0  0  0  0  0  0  0  0  0
    5.2129    0.8981   -1.1303 H   0  0  0  0  0  0  0  0  0  0  0  0
    3.9446   -1.4036    0.4473 H   0  0  0  0  0  0  0  0  0  0  0  0
    3.8419   -1.1885   -1.3015 H   0  0  0  0  0  0  0  0  0  0  0  0
    2.6604    0.9984   -0.9631 H   0  0  0  0  0  0  0  0  0  0  0  0
    2.7631    0.7833    0.7856 H   0  0  0  0  0  0  0  0  0  0  0  0
    1.4187   -1.3249    0.6054 H   0  0  0  0  0  0  0  0  0  0  0  0
    1.3160   -1.1098   -1.1435 H   0  0  0  0  0  0  0  0  0  0  0  0
    0.2432    0.8631    0.9435 H   0  0  0  0  0  0  0  0  0  0  0  0
    0.1403    1.0781   -0.8054 H   0  0  0  0  0  0  0  0  0  0  0  0
   -1.1016   -1.2448    0.7635 H   0  0  0  0  0  0  0  0  0  0  0  0
   -1.2035   -1.0301   -0.9856 H   0  0  0  0  0  0  0  0  0  0  0  0
   -2.3813    1.1562   -0.6498 H   0  0  0  0  0  0  0  0  0  0  0  0
   -2.2693    0.9439    1.0992 H   0  0  0  0  0  0  0  0  0  0  0  0
   -3.6957   -0.9944   -0.8040 H   0  0  0  0  0  0  0  0  0  0  0  0
   -3.6320   -1.1251    0.9603 H   0  0  0  0  0  0  0  0  0  0  0  0
   -4.9217    1.2184   -0.5571 H   0  0  0  0  0  0  0  0  0  0  0  0
   -5.7892   -0.1698    0.1159 H   0  0  0  0  0  0  0  0  0  0  0  0
   -4.2809    1.7691    1.5284 H   0  0  0  0  0  0  0  0  0  0  0  0
  1  2  1  0
  2  3  1  0
  3  4  1  0
  4  5  1  0
  5  6  1  0
  6  7  1  0
  7  8  1  0
  8  9  1  0
  9 10  1  0
  1 11  1  0
  1 12  1  0
  1 13  1  0
  2 14  1  0
  2 15  1  0
  3 16  1  0
  3 17  1  0
  4 18  1  0
  4 19  1  0
  5 20  1  0
  5 21  1  0
  6 22  1  0
  6 23  1  0
  7 24  1  0
  7 25  1  0
  8 26  1  0
  8 27  1  0
  9 28  1  0
  9 29  1  0
 10 30  1  0
M  END
>  <Energy>  (2) 
-2.224688287665051

>  <Real charge>  (2) 
0

>  <Mult>  (2) 
1

$$$$
mol_614 526
     RDKit          3D

 30 29  0  0  0  0  0  0  0  0999 V2000
    4.5236   -0.4478   -1.0820 C   0  0  0  0  0  0  0  0  0  0  0  0
    4.1669   -0.3570    0.3936 C   0  0  0  0  0  0  0  0  0  0  0  0
    2.8604    0.3931    0.6616 C   0  0  0  0  0  0  0  0  0  0  0  0
    1.6258   -0.3227    0.1091 C   0  0  0  0  0  0  0  0  0  0  0  0
    0.3402    0.4123    0.4955 C   0  0  0  0  0  0  0  0  0  0  0  0
   -0.8955   -0.2992   -0.0582 C   0  0  0  0  0  0  0  0  0  0  0  0
   -2.1803    0.4352    0.3284 C   0  0  0  0  0  0  0  0  0  0  0  0
   -3.4140   -0.2750   -0.2245 C   0  0  0  0  0  0  0  0  0  0  0  0
   -4.6972    0.4498    0.1560 C   0  0  0  0  0  0  0  0  0  0  0  0
   -5.8031   -0.2586   -0.3864 O   0  0  0  0  0  0  0  0  0  0  0  0
    4.5537    0.5454   -1.5411 H   0  0  0  0  0  0  0  0  0  0  0  0
    5.5105   -0.9063   -1.2019 H   0  0  0  0  0  0  0  0  0  0  0  0
    3.8049   -1.0624   -1.6317 H   0  0  0  0  0  0  0  0  0  0  0  0
    4.9787    0.1628    0.9163 H   0  0  0  0  0  0  0  0  0  0  0  0
    4.1119   -1.3661    0.8184 H   0  0  0  0  0  0  0  0  0  0  0  0
    2.7505    0.5116    1.7468 H   0  0  0  0  0  0  0  0  0  0  0  0
    2.9230    1.4032    0.2386 H   0  0  0  0  0  0  0  0  0  0  0  0
    1.5920   -1.3486    0.4953 H   0  0  0  0  0  0  0  0  0  0  0  0
    1.6868   -0.3877   -0.9830 H   0  0  0  0  0  0  0  0  0  0  0  0
    0.2677    0.4767    1.5881 H   0  0  0  0  0  0  0  0  0  0  0  0
    0.3755    1.4395    0.1125 H   0  0  0  0  0  0  0  0  0  0  0  0
   -0.9301   -1.3265    0.3245 H   0  0  0  0  0  0  0  0  0  0  0  0
   -0.8237   -0.3633   -1.1508 H   0  0  0  0  0  0  0  0  0  0  0  0
   -2.1456    1.4625   -0.0543 H   0  0  0  0  0  0  0  0  0  0  0  0
   -2.2522    0.4993    1.4209 H   0  0  0  0  0  0  0  0  0  0  0  0
   -3.3506   -0.3515   -1.3172 H   0  0  0  0  0  0  0  0  0  0  0  0
   -3.4563   -1.3069    0.1461 H   0  0  0  0  0  0  0  0  0  0  0  0
   -4.7048    1.4679   -0.2461 H   0  0  0  0  0  0  0  0  0  0  0  0
   -4.8125    0.4952    1.2436 H   0  0  0  0  0  0  0  0  0  0  0  0
   -6.6060    0.2254   -0.1285 H   0  0  0  0  0  0  0  0  0  0  0  0
  1  2  1  0
  2  3  1  0
  3  4  1  0
  4  5  1  0
  5  6  1  0
  6  7  1  0
  7  8  1  0
  8  9  1  0
  9 10  1  0
  1 11  1  0
  1 12  1  0
  1 13  1  0
  2 14  1  0
  2 15  1  0
  3 16  1  0
  3 17  1  0
  4 18  1  0
  4 19  1  0
  5 20  1  0
  5 21  1  0
  6 22  1  0
  6 23  1  0
  7 24  1  0
  7 25  1  0
  8 26  1  0
  8 27  1  0
  9 28  1  0
  9 29  1  0
 10 30  1  0
M  END
>  <Energy>  (3) 
-2.2121114501224026

>  <Real charge>  (3) 
0

>  <Mult>  (3) 
1

$$$$
mol_614 405
     RDKit          3D

 30 29  0  0  0  0  0  0  0  0999 V2000
   -4.8880    1.1469   -0.0879 C   0  0  0  0  0  0  0  0  0  0  0  0
   -3.8905    0.0382    0.2076 C   0  0  0  0  0  0  0  0  0  0  0  0
   -2.4621    0.4659   -0.1285 C   0  0  0  0  0  0  0  0  0  0  0  0
   -1.4617   -0.6521    0.1702 C   0  0  0  0  0  0  0  0  0  0  0  0
   -0.0314   -0.2242   -0.1668 C   0  0  0  0  0  0  0  0  0  0  0  0
    0.9672   -1.3433    0.1368 C   0  0  0  0  0  0  0  0  0  0  0  0
    2.4008   -1.0113   -0.2870 C   0  0  0  0  0  0  0  0  0  0  0  0
    3.0189    0.1378    0.5078 C   0  0  0  0  0  0  0  0  0  0  0  0
    4.4784    0.3561    0.1314 C   0  0  0  0  0  0  0  0  0  0  0  0
    4.9943    1.4350    0.8987 O   0  0  0  0  0  0  0  0  0  0  0  0
   -5.9027    0.8197    0.1597 H   0  0  0  0  0  0  0  0  0  0  0  0
   -4.8683    1.4201   -1.1478 H   0  0  0  0  0  0  0  0  0  0  0  0
   -4.6662    2.0418    0.5022 H   0  0  0  0  0  0  0  0  0  0  0  0
   -4.1594   -0.8516   -0.3734 H   0  0  0  0  0  0  0  0  0  0  0  0
   -3.9584   -0.2334    1.2675 H   0  0  0  0  0  0  0  0  0  0  0  0
   -2.1997    1.3587    0.4520 H   0  0  0  0  0  0  0  0  0  0  0  0
   -2.4005    0.7404   -1.1887 H   0  0  0  0  0  0  0  0  0  0  0  0
   -1.5226   -0.9261    1.2305 H   0  0  0  0  0  0  0  0  0  0  0  0
   -1.7250   -1.5446   -0.4103 H   0  0  0  0  0  0  0  0  0  0  0  0
    0.0302    0.0461   -1.2278 H   0  0  0  0  0  0  0  0  0  0  0  0
    0.2197    0.6712    0.4126 H   0  0  0  0  0  0  0  0  0  0  0  0
    0.9455   -1.5792    1.2077 H   0  0  0  0  0  0  0  0  0  0  0  0
    0.6571   -2.2527   -0.3928 H   0  0  0  0  0  0  0  0  0  0  0  0
    3.0138   -1.9109   -0.1500 H   0  0  0  0  0  0  0  0  0  0  0  0
    2.4225   -0.7752   -1.3579 H   0  0  0  0  0  0  0  0  0  0  0  0
    2.9480   -0.0629    1.5841 H   0  0  0  0  0  0  0  0  0  0  0  0
    2.4670    1.0694    0.3375 H   0  0  0  0  0  0  0  0  0  0  0  0
    4.5745    0.6062   -0.9300 H   0  0  0  0  0  0  0  0  0  0  0  0
    5.0746   -0.5373    0.3428 H   0  0  0  0  0  0  0  0  0  0  0  0
    5.9239    1.5514    0.6380 H   0  0  0  0  0  0  0  0  0  0  0  0
  1  2  1  0
  2  3  1  0
  3  4  1  0
  4  5  1  0
  5  6  1  0
  6  7  1  0
  7  8  1  0
  8  9  1  0
  9 10  1  0
  1 11  1  0
  1 12  1  0
  1 13  1  0
  2 14  1  0
  2 15  1  0
  3 16  1  0
  3 17  1  0
  4 18  1  0
  4 19  1  0
  5 20  1  0
  5 21  1  0
  6 22  1  0
  6 23  1  0
  7 24  1  0
  7 25  1  0
  8 26  1  0
  8 27  1  0
  9 28  1  0
  9 29  1  0
 10 30  1  0
M  END
>  <Energy>  (4) 
-2.1675507560501974

>  <Real charge>  (4) 
0

>  <Mult>  (4) 
1

$$$$
mol_614 281
     RDKit          3D

 30 29  0  0  0  0  0  0  0  0999 V2000
   -4.6058   -1.0370    0.4095 C   0  0  0  0  0  0  0  0  0  0  0  0
   -3.8325    0.0841   -0.2663 C   0  0  0  0  0  0  0  0  0  0  0  0
   -2.3717    0.1093    0.1860 C   0  0  0  0  0  0  0  0  0  0  0  0
   -1.5989    1.2374   -0.5009 C   0  0  0  0  0  0  0  0  0  0  0  0
   -0.1591    1.3824    0.0000 C   0  0  0  0  0  0  0  0  0  0  0  0
    0.7283    0.1838   -0.3430 C   0  0  0  0  0  0  0  0  0  0  0  0
    2.1791    0.4309    0.0770 C   0  0  0  0  0  0  0  0  0  0  0  0
    3.0667   -0.7652   -0.2604 C   0  0  0  0  0  0  0  0  0  0  0  0
    4.5119   -0.5271    0.1538 C   0  0  0  0  0  0  0  0  0  0  0  0
    5.2817   -1.6720   -0.1861 O   0  0  0  0  0  0  0  0  0  0  0  0
   -5.6470   -1.0361    0.0723 H   0  0  0  0  0  0  0  0  0  0  0  0
   -4.1719   -2.0130    0.1696 H   0  0  0  0  0  0  0  0  0  0  0  0
   -4.6008   -0.9166    1.4975 H   0  0  0  0  0  0  0  0  0  0  0  0
   -4.3117    1.0420   -0.0330 H   0  0  0  0  0  0  0  0  0  0  0  0
   -3.8833   -0.0482   -1.3534 H   0  0  0  0  0  0  0  0  0  0  0  0
   -2.3267    0.2414    1.2737 H   0  0  0  0  0  0  0  0  0  0  0  0
   -1.9097   -0.8573   -0.0438 H   0  0  0  0  0  0  0  0  0  0  0  0
   -2.1189    2.1870   -0.3231 H   0  0  0  0  0  0  0  0  0  0  0  0
   -1.5965    1.0778   -1.5861 H   0  0  0  0  0  0  0  0  0  0  0  0
   -0.1616    1.5433    1.0850 H   0  0  0  0  0  0  0  0  0  0  0  0
    0.2696    2.2857   -0.4518 H   0  0  0  0  0  0  0  0  0  0  0  0
    0.3581   -0.7149    0.1626 H   0  0  0  0  0  0  0  0  0  0  0  0
    0.6864   -0.0083   -1.4219 H   0  0  0  0  0  0  0  0  0  0  0  0
    2.2208    0.6268    1.1553 H   0  0  0  0  0  0  0  0  0  0  0  0
    2.5614    1.3255   -0.4295 H   0  0  0  0  0  0  0  0  0  0  0  0
    3.0274   -0.9759   -1.3365 H   0  0  0  0  0  0  0  0  0  0  0  0
    2.6911   -1.6690    0.2356 H   0  0  0  0  0  0  0  0  0  0  0  0
    4.9296    0.3405   -0.3669 H   0  0  0  0  0  0  0  0  0  0  0  0
    4.5871   -0.3651    1.2338 H   0  0  0  0  0  0  0  0  0  0  0  0
    6.1969   -1.4922    0.0890 H   0  0  0  0  0  0  0  0  0  0  0  0
  1  2  1  0
  2  3  1  0
  3  4  1  0
  4  5  1  0
  5  6  1  0
  6  7  1  0
  7  8  1  0
  8  9  1  0
  9 10  1  0
  1 11  1  0
  1 12  1  0
  1 13  1  0
  2 14  1  0
  2 15  1  0
  3 16  1  0
  3 17  1  0
  4 18  1  0
  4 19  1  0
  5 20  1  0
  5 21  1  0
  6 22  1  0
  6 23  1  0
  7 24  1  0
  7 25  1  0
  8 26  1  0
  8 27  1  0
  9 28  1  0
  9 29  1  0
 10 30  1  0
M  END
>  <Energy>  (5) 
-2.1665726022688183

>  <Real charge>  (5) 
0

>  <Mult>  (5) 
1

$$$$
mol_614 582
     RDKit          3D

 30 29  0  0  0  0  0  0  0  0999 V2000
   -4.7843    0.9179    0.7376 C   0  0  0  0  0  0  0  0  0  0  0  0
   -3.3466    0.4394    0.8723 C   0  0  0  0  0  0  0  0  0  0  0  0
   -2.9715   -0.5220   -0.2562 C   0  0  0  0  0  0  0  0  0  0  0  0
   -1.5709   -1.1222   -0.1043 C   0  0  0  0  0  0  0  0  0  0  0  0
   -0.4492   -0.0889   -0.2302 C   0  0  0  0  0  0  0  0  0  0  0  0
    0.9269   -0.7573   -0.1856 C   0  0  0  0  0  0  0  0  0  0  0  0
    2.0505    0.2734   -0.3073 C   0  0  0  0  0  0  0  0  0  0  0  0
    3.4235   -0.3935   -0.2634 C   0  0  0  0  0  0  0  0  0  0  0  0
    4.5475    0.6259   -0.3838 C   0  0  0  0  0  0  0  0  0  0  0  0
    5.7931   -0.0560   -0.3363 O   0  0  0  0  0  0  0  0  0  0  0  0
   -5.4838    0.0770    0.7802 H   0  0  0  0  0  0  0  0  0  0  0  0
   -5.0321    1.6068    1.5513 H   0  0  0  0  0  0  0  0  0  0  0  0
   -4.9353    1.4435   -0.2107 H   0  0  0  0  0  0  0  0  0  0  0  0
   -2.6857    1.3125    0.8649 H   0  0  0  0  0  0  0  0  0  0  0  0
   -3.2226   -0.0568    1.8417 H   0  0  0  0  0  0  0  0  0  0  0  0
   -3.6952   -1.3463   -0.2791 H   0  0  0  0  0  0  0  0  0  0  0  0
   -3.0488   -0.0081   -1.2221 H   0  0  0  0  0  0  0  0  0  0  0  0
   -1.4941   -1.6370    0.8611 H   0  0  0  0  0  0  0  0  0  0  0  0
   -1.4416   -1.8867   -0.8806 H   0  0  0  0  0  0  0  0  0  0  0  0
   -0.5595    0.4610   -1.1726 H   0  0  0  0  0  0  0  0  0  0  0  0
   -0.5182    0.6418    0.5834 H   0  0  0  0  0  0  0  0  0  0  0  0
    1.0359   -1.3105    0.7553 H   0  0  0  0  0  0  0  0  0  0  0  0
    1.0082   -1.4864   -1.0010 H   0  0  0  0  0  0  0  0  0  0  0  0
    1.9409    0.8269   -1.2479 H   0  0  0  0  0  0  0  0  0  0  0  0
    1.9702    1.0025    0.5081 H   0  0  0  0  0  0  0  0  0  0  0  0
    3.5139   -1.1307   -1.0710 H   0  0  0  0  0  0  0  0  0  0  0  0
    3.5427   -0.9566    0.6708 H   0  0  0  0  0  0  0  0  0  0  0  0
    4.5126    1.3451    0.4406 H   0  0  0  0  0  0  0  0  0  0  0  0
    4.4832    1.1679   -1.3328 H   0  0  0  0  0  0  0  0  0  0  0  0
    6.4901    0.6175   -0.4152 H   0  0  0  0  0  0  0  0  0  0  0  0
  1  2  1  0
  2  3  1  0
  3  4  1  0
  4  5  1  0
  5  6  1  0
  6  7  1  0
  7  8  1  0
  8  9  1  0
  9 10  1  0
  1 11  1  0
  1 12  1  0
  1 13  1  0
  2 14  1  0
  2 15  1  0
  3 16  1  0
  3 17  1  0
  4 18  1  0
  4 19  1  0
  5 20  1  0
  5 21  1  0
  6 22  1  0
  6 23  1  0
  7 24  1  0
  7 25  1  0
  8 26  1  0
  8 27  1  0
  9 28  1  0
  9 29  1  0
 10 30  1  0
M  END
>  <Energy>  (6) 
-2.161816305897177

>  <Real charge>  (6) 
0

>  <Mult>  (6) 
1

$$$$
mol_614 325
     RDKit          3D

 30 29  0  0  0  0  0  0  0  0999 V2000
    5.1704    0.1383    0.1467 C   0  0  0  0  0  0  0  0  0  0  0  0
    3.8079    0.5790   -0.3639 C   0  0  0  0  0  0  0  0  0  0  0  0
    2.6790   -0.2073    0.3021 C   0  0  0  0  0  0  0  0  0  0  0  0
    1.3102    0.2391   -0.2143 C   0  0  0  0  0  0  0  0  0  0  0  0
    0.1804   -0.5477    0.4522 C   0  0  0  0  0  0  0  0  0  0  0  0
   -1.1892   -0.1014   -0.0648 C   0  0  0  0  0  0  0  0  0  0  0  0
   -2.3175   -0.8877    0.6063 C   0  0  0  0  0  0  0  0  0  0  0  0
   -3.7018   -0.5571    0.0478 C   0  0  0  0  0  0  0  0  0  0  0  0
   -4.1485    0.8730    0.3256 C   0  0  0  0  0  0  0  0  0  0  0  0
   -5.4733    1.0634   -0.1560 O   0  0  0  0  0  0  0  0  0  0  0  0
    5.9628    0.7133   -0.3427 H   0  0  0  0  0  0  0  0  0  0  0  0
    5.3428   -0.9226   -0.0610 H   0  0  0  0  0  0  0  0  0  0  0  0
    5.2542    0.2953    1.2268 H   0  0  0  0  0  0  0  0  0  0  0  0
    3.7687    0.4392   -1.4505 H   0  0  0  0  0  0  0  0  0  0  0  0
    3.6806    1.6504   -0.1698 H   0  0  0  0  0  0  0  0  0  0  0  0
    2.7253   -0.0673    1.3890 H   0  0  0  0  0  0  0  0  0  0  0  0
    2.8135   -1.2785    0.1083 H   0  0  0  0  0  0  0  0  0  0  0  0
    1.2639    0.0989   -1.3011 H   0  0  0  0  0  0  0  0  0  0  0  0
    1.1760    1.3103   -0.0204 H   0  0  0  0  0  0  0  0  0  0  0  0
    0.2260   -0.4072    1.5391 H   0  0  0  0  0  0  0  0  0  0  0  0
    0.3154   -1.6188    0.2584 H   0  0  0  0  0  0  0  0  0  0  0  0
   -1.2361   -0.2454   -1.1509 H   0  0  0  0  0  0  0  0  0  0  0  0
   -1.3124    0.9703    0.1273 H   0  0  0  0  0  0  0  0  0  0  0  0
   -2.3044   -0.7051    1.6877 H   0  0  0  0  0  0  0  0  0  0  0  0
   -2.1392   -1.9610    0.4653 H   0  0  0  0  0  0  0  0  0  0  0  0
   -3.7298   -0.7459   -1.0326 H   0  0  0  0  0  0  0  0  0  0  0  0
   -4.4334   -1.2489    0.4844 H   0  0  0  0  0  0  0  0  0  0  0  0
   -3.5073    1.5970   -0.1844 H   0  0  0  0  0  0  0  0  0  0  0  0
   -4.1348    1.0943    1.3975 H   0  0  0  0  0  0  0  0  0  0  0  0
   -6.0498    0.4402    0.3181 H   0  0  0  0  0  0  0  0  0  0  0  0
  1  2  1  0
  2  3  1  0
  3  4  1  0
  4  5  1  0
  5  6  1  0
  6  7  1  0
  7  8  1  0
  8  9  1  0
  9 10  1  0
  1 11  1  0
  1 12  1  0
  1 13  1  0
  2 14  1  0
  2 15  1  0
  3 16  1  0
  3 17  1  0
  4 18  1  0
  4 19  1  0
  5 20  1  0
  5 21  1  0
  6 22  1  0
  6 23  1  0
  7 24  1  0
  7 25  1  0
  8 26  1  0
  8 27  1  0
  9 28  1  0
  9 29  1  0
 10 30  1  0
M  END
>  <Energy>  (7) 
-2.05116882557502

>  <Real charge>  (7) 
0

>  <Mult>  (7) 
1

$$$$
