mol_182 714
     RDKit          3D

 56 58  0  0  0  0  0  0  0  0999 V2000
    0.3703    4.2092   -3.4812 C   0  0  0  0  0  0  0  0  0  0  0  0
   -0.0259    2.8000   -3.0790 C   0  0  0  0  0  0  0  0  0  0  0  0
   -0.9771    2.8962   -2.0196 O   0  0  0  0  0  0  0  0  0  0  0  0
   -1.4141    1.7219   -1.4735 C   0  0  0  0  0  0  0  0  0  0  0  0
   -2.2855    1.8644   -0.3962 C   0  0  0  0  0  0  0  0  0  0  0  0
   -2.8042    0.7437    0.2649 C   0  0  0  0  0  0  0  0  0  0  0  0
   -2.4700   -0.5588   -0.1381 C   0  0  0  0  0  0  0  0  0  0  0  0
   -1.5905   -0.6793   -1.2300 C   0  0  0  0  0  0  0  0  0  0  0  0
   -1.0679    0.4415   -1.8895 C   0  0  0  0  0  0  0  0  0  0  0  0
   -3.0117   -1.8203    0.5687 C   0  0  0  0  0  0  0  0  0  0  0  0
   -4.0641   -1.4901    1.6566 C   0  0  0  0  0  0  0  0  0  0  0  0
   -3.7099   -2.7413   -0.4579 C   0  0  0  0  0  0  0  0  0  0  0  0
   -1.8504   -2.5738    1.2853 C   0  0  0  0  0  0  0  0  0  0  0  0
   -1.0073   -3.2690    0.3599 O   0  0  0  0  0  0  0  0  0  0  0  0
    0.1160   -3.8853    0.9922 C   0  0  0  0  0  0  0  0  0  0  0  0
    1.2192   -2.8909    1.2542 C   0  0  0  0  0  0  0  0  0  0  0  0
    1.8037   -2.7848    2.5247 C   0  0  0  0  0  0  0  0  0  0  0  0
    2.8284   -1.8645    2.7604 C   0  0  0  0  0  0  0  0  0  0  0  0
    3.2766   -1.0382    1.7308 C   0  0  0  0  0  0  0  0  0  0  0  0
    2.6906   -1.1309    0.4681 C   0  0  0  0  0  0  0  0  0  0  0  0
    3.1191   -0.3593   -0.5860 O   0  0  0  0  0  0  0  0  0  0  0  0
    3.0389    1.0076   -0.4324 C   0  0  0  0  0  0  0  0  0  0  0  0
    4.0749    1.7593   -0.9893 C   0  0  0  0  0  0  0  0  0  0  0  0
    4.0478    3.1523   -0.9102 C   0  0  0  0  0  0  0  0  0  0  0  0
    2.9773    3.7939   -0.2873 C   0  0  0  0  0  0  0  0  0  0  0  0
    1.9316    3.0443    0.2514 C   0  0  0  0  0  0  0  0  0  0  0  0
    1.9580    1.6508    0.1758 C   0  0  0  0  0  0  0  0  0  0  0  0
    1.6875   -2.0668    0.2211 C   0  0  0  0  0  0  0  0  0  0  0  0
    0.7962    4.7490   -2.6292 H   0  0  0  0  0  0  0  0  0  0  0  0
    1.1048    4.1914   -4.2912 H   0  0  0  0  0  0  0  0  0  0  0  0
   -0.5064    4.7764   -3.8112 H   0  0  0  0  0  0  0  0  0  0  0  0
    0.8678    2.2591   -2.7489 H   0  0  0  0  0  0  0  0  0  0  0  0
   -0.4728    2.2934   -3.9421 H   0  0  0  0  0  0  0  0  0  0  0  0
   -2.5648    2.8605   -0.0616 H   0  0  0  0  0  0  0  0  0  0  0  0
   -3.4739    0.9297    1.0992 H   0  0  0  0  0  0  0  0  0  0  0  0
   -1.2861   -1.6627   -1.5835 H   0  0  0  0  0  0  0  0  0  0  0  0
   -0.3898    0.2712   -2.7187 H   0  0  0  0  0  0  0  0  0  0  0  0
   -3.6339   -0.8910    2.4676 H   0  0  0  0  0  0  0  0  0  0  0  0
   -4.9175   -0.9423    1.2400 H   0  0  0  0  0  0  0  0  0  0  0  0
   -4.4612   -2.4054    2.1120 H   0  0  0  0  0  0  0  0  0  0  0  0
   -3.0353   -3.0889   -1.2470 H   0  0  0  0  0  0  0  0  0  0  0  0
   -4.1177   -3.6340    0.0307 H   0  0  0  0  0  0  0  0  0  0  0  0
   -4.5410   -2.2213   -0.9493 H   0  0  0  0  0  0  0  0  0  0  0  0
   -2.2663   -3.3219    1.9723 H   0  0  0  0  0  0  0  0  0  0  0  0
   -1.2577   -1.8650    1.8773 H   0  0  0  0  0  0  0  0  0  0  0  0
    0.4995   -4.6514    0.3090 H   0  0  0  0  0  0  0  0  0  0  0  0
   -0.2006   -4.4003    1.9071 H   0  0  0  0  0  0  0  0  0  0  0  0
    1.4655   -3.4187    3.3414 H   0  0  0  0  0  0  0  0  0  0  0  0
    3.2785   -1.7921    3.7471 H   0  0  0  0  0  0  0  0  0  0  0  0
    4.0781   -0.3283    1.9135 H   0  0  0  0  0  0  0  0  0  0  0  0
    4.9040    1.2586   -1.4814 H   0  0  0  0  0  0  0  0  0  0  0  0
    4.8581    3.7365   -1.3380 H   0  0  0  0  0  0  0  0  0  0  0  0
    2.9508    4.8791   -0.2309 H   0  0  0  0  0  0  0  0  0  0  0  0
    1.0844    3.5429    0.7157 H   0  0  0  0  0  0  0  0  0  0  0  0
    1.1217    1.0823    0.5746 H   0  0  0  0  0  0  0  0  0  0  0  0
    1.2542   -2.1386   -0.7734 H   0  0  0  0  0  0  0  0  0  0  0  0
  1  2  1  0
  2  3  1  0
  3  4  1  0
  4  5  2  0
  5  6  1  0
  6  7  2  0
  7  8  1  0
  8  9  2  0
  7 10  1  0
 10 11  1  0
 10 12  1  0
 10 13  1  0
 13 14  1  0
 14 15  1  0
 15 16  1  0
 16 17  2  0
 17 18  1  0
 18 19  2  0
 19 20  1  0
 20 21  1  0
 21 22  1  0
 22 23  2  0
 23 24  1  0
 24 25  2  0
 25 26  1  0
 26 27  2  0
 20 28  2  0
  9  4  1  0
 27 22  1  0
 28 16  1  0
  1 29  1  0
  1 30  1  0
  1 31  1  0
  2 32  1  0
  2 33  1  0
  5 34  1  0
  6 35  1  0
  8 36  1  0
  9 37  1  0
 11 38  1  0
 11 39  1  0
 11 40  1  0
 12 41  1  0
 12 42  1  0
 12 43  1  0
 13 44  1  0
 13 45  1  0
 15 46  1  0
 15 47  1  0
 17 48  1  0
 18 49  1  0
 19 50  1  0
 23 51  1  0
 24 52  1  0
 25 53  1  0
 26 54  1  0
 27 55  1  0
 28 56  1  0
M  END
>  <Energy>  (1) 
93.77829243174429

>  <Real charge>  (1) 
0

>  <Mult>  (1) 
1

$$$$
