mol_183 78
     RDKit          3D

 33 35  0  0  0  0  0  0  0  0999 V2000
   -1.9381   -1.3191   -1.6308 C   0  0  0  0  0  0  0  0  0  0  0  0
   -2.3733   -0.6874   -0.3369 C   0  0  0  0  0  0  0  0  0  0  0  0
   -3.7075   -0.8550    0.0718 C   0  0  0  0  0  0  0  0  0  0  0  0
   -4.1726   -0.2840    1.2569 C   0  0  0  0  0  0  0  0  0  0  0  0
   -3.3093    0.4540    2.0596 C   0  0  0  0  0  0  0  0  0  0  0  0
   -1.9778    0.6174    1.6791 C   0  0  0  0  0  0  0  0  0  0  0  0
   -1.4978    0.0497    0.4863 C   0  0  0  0  0  0  0  0  0  0  0  0
   -0.1213    0.2255    0.1500 N   0  0  0  0  0  0  0  0  0  0  0  0
    0.4116    1.4844   -0.0856 C   0  0  0  0  0  0  0  0  0  0  0  0
   -0.5083    2.6868   -0.1475 C   0  0  0  0  0  0  0  0  0  0  0  0
    1.6727    1.7079   -0.2888 N   0  0  0  0  0  0  0  0  0  0  0  0
    2.5537    0.6234   -0.2991 C   0  0  0  0  0  0  0  0  0  0  0  0
    3.9097    0.8608   -0.5380 C   0  0  0  0  0  0  0  0  0  0  0  0
    4.8245   -0.1954   -0.5673 C   0  0  0  0  0  0  0  0  0  0  0  0
    4.3879   -1.5025   -0.3568 C   0  0  0  0  0  0  0  0  0  0  0  0
    3.0371   -1.7513   -0.1171 C   0  0  0  0  0  0  0  0  0  0  0  0
    2.1285   -0.6850   -0.0917 C   0  0  0  0  0  0  0  0  0  0  0  0
    0.6964   -0.9108    0.1740 C   0  0  0  0  0  0  0  0  0  0  0  0
    0.3250   -2.0561    0.4266 O   0  0  0  0  0  0  0  0  0  0  0  0
   -2.7779   -1.3854   -2.3315 H   0  0  0  0  0  0  0  0  0  0  0  0
   -1.1661   -0.7237   -2.1282 H   0  0  0  0  0  0  0  0  0  0  0  0
   -1.5594   -2.3296   -1.4524 H   0  0  0  0  0  0  0  0  0  0  0  0
   -4.3968   -1.4357   -0.5384 H   0  0  0  0  0  0  0  0  0  0  0  0
   -5.2084   -0.4242    1.5562 H   0  0  0  0  0  0  0  0  0  0  0  0
   -3.6676    0.8880    2.9895 H   0  0  0  0  0  0  0  0  0  0  0  0
   -1.3078    1.1649    2.3380 H   0  0  0  0  0  0  0  0  0  0  0  0
   -0.0340    3.4845   -0.7285 H   0  0  0  0  0  0  0  0  0  0  0  0
   -1.4590    2.4451   -0.6286 H   0  0  0  0  0  0  0  0  0  0  0  0
   -0.6859    3.0644    0.8630 H   0  0  0  0  0  0  0  0  0  0  0  0
    4.2527    1.8791   -0.7038 H   0  0  0  0  0  0  0  0  0  0  0  0
    5.8768    0.0047   -0.7542 H   0  0  0  0  0  0  0  0  0  0  0  0
    5.0981   -2.3257   -0.3775 H   0  0  0  0  0  0  0  0  0  0  0  0
    2.6944   -2.7698    0.0519 H   0  0  0  0  0  0  0  0  0  0  0  0
  1  2  1  0
  2  3  2  0
  3  4  1  0
  4  5  2  0
  5  6  1  0
  6  7  2  0
  7  8  1  0
  8  9  1  0
  9 10  1  0
  9 11  2  0
 11 12  1  0
 12 13  2  0
 13 14  1  0
 14 15  2  0
 15 16  1  0
 16 17  2  0
 17 18  1  0
 18 19  2  0
  7  2  1  0
 17 12  1  0
 18  8  1  0
  1 20  1  0
  1 21  1  0
  1 22  1  0
  3 23  1  0
  4 24  1  0
  5 25  1  0
  6 26  1  0
 10 27  1  0
 10 28  1  0
 10 29  1  0
 13 30  1  0
 14 31  1  0
 15 32  1  0
 16 33  1  0
M  END
>  <Energy>  (1) 
55.70278208531821

>  <Real charge>  (1) 
0

>  <Mult>  (1) 
1

$$$$
mol_183 128
     RDKit          3D

 33 35  0  0  0  0  0  0  0  0999 V2000
   -1.9206   -2.1088    0.0151 C   0  0  0  0  0  0  0  0  0  0  0  0
   -2.3899   -0.6797    0.0151 C   0  0  0  0  0  0  0  0  0  0  0  0
   -3.7751   -0.4463    0.0749 C   0  0  0  0  0  0  0  0  0  0  0  0
   -4.2821    0.8511    0.1532 C   0  0  0  0  0  0  0  0  0  0  0  0
   -3.4133    1.9368    0.1797 C   0  0  0  0  0  0  0  0  0  0  0  0
   -2.0370    1.7263    0.1046 C   0  0  0  0  0  0  0  0  0  0  0  0
   -1.5158    0.4266   -0.0071 C   0  0  0  0  0  0  0  0  0  0  0  0
   -0.1033    0.2703   -0.1313 N   0  0  0  0  0  0  0  0  0  0  0  0
    0.4756   -0.2215   -1.2912 C   0  0  0  0  0  0  0  0  0  0  0  0
   -0.3797   -0.4806   -2.5151 C   0  0  0  0  0  0  0  0  0  0  0  0
    1.7446   -0.4592   -1.4167 N   0  0  0  0  0  0  0  0  0  0  0  0
    2.5906   -0.1769   -0.3409 C   0  0  0  0  0  0  0  0  0  0  0  0
    3.9532   -0.4603   -0.4638 C   0  0  0  0  0  0  0  0  0  0  0  0
    4.8382   -0.1730    0.5791 C   0  0  0  0  0  0  0  0  0  0  0  0
    4.3652    0.4045    1.7566 C   0  0  0  0  0  0  0  0  0  0  0  0
    3.0075    0.6922    1.8901 C   0  0  0  0  0  0  0  0  0  0  0  0
    2.1292    0.3986    0.8388 C   0  0  0  0  0  0  0  0  0  0  0  0
    0.6853    0.6722    0.9530 C   0  0  0  0  0  0  0  0  0  0  0  0
    0.2711    1.2081    1.9800 O   0  0  0  0  0  0  0  0  0  0  0  0
   -0.8616   -2.2008    0.2715 H   0  0  0  0  0  0  0  0  0  0  0  0
   -2.4735   -2.6862    0.7647 H   0  0  0  0  0  0  0  0  0  0  0  0
   -2.0885   -2.5620   -0.9662 H   0  0  0  0  0  0  0  0  0  0  0  0
   -4.4703   -1.2840    0.0836 H   0  0  0  0  0  0  0  0  0  0  0  0
   -5.3557    1.0124    0.2121 H   0  0  0  0  0  0  0  0  0  0  0  0
   -3.8043    2.9477    0.2608 H   0  0  0  0  0  0  0  0  0  0  0  0
   -1.3699    2.5853    0.1241 H   0  0  0  0  0  0  0  0  0  0  0  0
    0.2097   -0.2768   -3.4156 H   0  0  0  0  0  0  0  0  0  0  0  0
   -0.6713   -1.5333   -2.5384 H   0  0  0  0  0  0  0  0  0  0  0  0
   -1.2674    0.1528   -2.5546 H   0  0  0  0  0  0  0  0  0  0  0  0
    4.3256   -0.9055   -1.3831 H   0  0  0  0  0  0  0  0  0  0  0  0
    5.8961   -0.3987    0.4690 H   0  0  0  0  0  0  0  0  0  0  0  0
    5.0521    0.6293    2.5690 H   0  0  0  0  0  0  0  0  0  0  0  0
    2.6350    1.1395    2.8091 H   0  0  0  0  0  0  0  0  0  0  0  0
  1  2  1  0
  2  3  2  0
  3  4  1  0
  4  5  2  0
  5  6  1  0
  6  7  2  0
  7  8  1  0
  8  9  1  0
  9 10  1  0
  9 11  2  0
 11 12  1  0
 12 13  2  0
 13 14  1  0
 14 15  2  0
 15 16  1  0
 16 17  2  0
 17 18  1  0
 18 19  2  0
  7  2  1  0
 17 12  1  0
 18  8  1  0
  1 20  1  0
  1 21  1  0
  1 22  1  0
  3 23  1  0
  4 24  1  0
  5 25  1  0
  6 26  1  0
 10 27  1  0
 10 28  1  0
 10 29  1  0
 13 30  1  0
 14 31  1  0
 15 32  1  0
 16 33  1  0
M  END
>  <Energy>  (2) 
56.36378424458092

>  <Real charge>  (2) 
0

>  <Mult>  (2) 
1

$$$$
