mol_1052 408
     RDKit          3D

 24 23  0  0  0  0  0  0  0  0999 V2000
    3.8597   -0.0018    0.1350 C   0  0  0  0  0  0  0  0  0  0  0  0
    2.5123   -0.1758    0.8174 C   0  0  0  0  0  0  0  0  0  0  0  0
    1.3571    0.0276   -0.1633 C   0  0  0  0  0  0  0  0  0  0  0  0
    0.0019   -0.1480    0.5303 C   0  0  0  0  0  0  0  0  0  0  0  0
   -1.1731    0.0903   -0.4267 C   0  0  0  0  0  0  0  0  0  0  0  0
   -1.1259   -0.8594   -1.4891 O   0  0  0  0  0  0  0  0  0  0  0  0
   -2.5149   -0.0240    0.3056 C   0  0  0  0  0  0  0  0  0  0  0  0
   -3.6979    0.2718   -0.6066 C   0  0  0  0  0  0  0  0  0  0  0  0
    4.6710   -0.1512    0.8543 H   0  0  0  0  0  0  0  0  0  0  0  0
    3.9859   -0.7273   -0.6750 H   0  0  0  0  0  0  0  0  0  0  0  0
    3.9594    1.0040   -0.2856 H   0  0  0  0  0  0  0  0  0  0  0  0
    2.4575   -1.1797    1.2543 H   0  0  0  0  0  0  0  0  0  0  0  0
    2.4318    0.5420    1.6420 H   0  0  0  0  0  0  0  0  0  0  0  0
    1.4182    1.0325   -0.5985 H   0  0  0  0  0  0  0  0  0  0  0  0
    1.4506   -0.6886   -0.9883 H   0  0  0  0  0  0  0  0  0  0  0  0
   -0.0671    0.5472    1.3758 H   0  0  0  0  0  0  0  0  0  0  0  0
   -0.0542   -1.1663    0.9355 H   0  0  0  0  0  0  0  0  0  0  0  0
   -1.0843    1.0869   -0.8742 H   0  0  0  0  0  0  0  0  0  0  0  0
   -1.2024   -1.7469   -1.0990 H   0  0  0  0  0  0  0  0  0  0  0  0
   -2.5367    0.6708    1.1531 H   0  0  0  0  0  0  0  0  0  0  0  0
   -2.6366   -1.0378    0.7061 H   0  0  0  0  0  0  0  0  0  0  0  0
   -3.7550   -0.4455   -1.4313 H   0  0  0  0  0  0  0  0  0  0  0  0
   -4.6337    0.2095   -0.0421 H   0  0  0  0  0  0  0  0  0  0  0  0
   -3.6235    1.2786   -1.0298 H   0  0  0  0  0  0  0  0  0  0  0  0
  1  2  1  0
  2  3  1  0
  3  4  1  0
  4  5  1  0
  5  6  1  0
  5  7  1  0
  7  8  1  0
  1  9  1  0
  1 10  1  0
  1 11  1  0
  2 12  1  0
  2 13  1  0
  3 14  1  0
  3 15  1  0
  4 16  1  0
  4 17  1  0
  5 18  1  0
  6 19  1  0
  7 20  1  0
  7 21  1  0
  8 22  1  0
  8 23  1  0
  8 24  1  0
M  END
>  <Energy>  (1) 
0.6837458343157721

>  <Real charge>  (1) 
0

>  <Mult>  (1) 
1

$$$$
mol_1052 361
     RDKit          3D

 24 23  0  0  0  0  0  0  0  0999 V2000
   -3.8722    0.2984   -0.1963 C   0  0  0  0  0  0  0  0  0  0  0  0
   -2.5667    0.4493    0.5682 C   0  0  0  0  0  0  0  0  0  0  0  0
   -1.3671    0.0344   -0.2841 C   0  0  0  0  0  0  0  0  0  0  0  0
   -0.0541    0.1900    0.4913 C   0  0  0  0  0  0  0  0  0  0  0  0
    1.1680   -0.1844   -0.3571 C   0  0  0  0  0  0  0  0  0  0  0  0
    1.0680   -1.5611   -0.7121 O   0  0  0  0  0  0  0  0  0  0  0  0
    2.4648    0.0585    0.4242 C   0  0  0  0  0  0  0  0  0  0  0  0
    3.7138   -0.1974   -0.4089 C   0  0  0  0  0  0  0  0  0  0  0  0
   -3.8755    0.9242   -1.0944 H   0  0  0  0  0  0  0  0  0  0  0  0
   -4.7162    0.6007    0.4315 H   0  0  0  0  0  0  0  0  0  0  0  0
   -4.0306   -0.7411   -0.5008 H   0  0  0  0  0  0  0  0  0  0  0  0
   -2.6085   -0.1639    1.4759 H   0  0  0  0  0  0  0  0  0  0  0  0
   -2.4550    1.4925    0.8860 H   0  0  0  0  0  0  0  0  0  0  0  0
   -1.3315    0.6498   -1.1913 H   0  0  0  0  0  0  0  0  0  0  0  0
   -1.4918   -1.0069   -0.6043 H   0  0  0  0  0  0  0  0  0  0  0  0
   -0.0947   -0.4528    1.3799 H   0  0  0  0  0  0  0  0  0  0  0  0
    0.0419    1.2264    0.8370 H   0  0  0  0  0  0  0  0  0  0  0  0
    1.1667    0.4076   -1.2801 H   0  0  0  0  0  0  0  0  0  0  0  0
    1.7376   -1.7412   -1.3929 H   0  0  0  0  0  0  0  0  0  0  0  0
    2.4988   -0.5980    1.3021 H   0  0  0  0  0  0  0  0  0  0  0  0
    2.4907    1.0938    0.7839 H   0  0  0  0  0  0  0  0  0  0  0  0
    3.7129    0.4160   -1.3155 H   0  0  0  0  0  0  0  0  0  0  0  0
    3.7920   -1.2486   -0.7018 H   0  0  0  0  0  0  0  0  0  0  0  0
    4.6087    0.0537    0.1694 H   0  0  0  0  0  0  0  0  0  0  0  0
  1  2  1  0
  2  3  1  0
  3  4  1  0
  4  5  1  0
  5  6  1  0
  5  7  1  0
  7  8  1  0
  1  9  1  0
  1 10  1  0
  1 11  1  0
  2 12  1  0
  2 13  1  0
  3 14  1  0
  3 15  1  0
  4 16  1  0
  4 17  1  0
  5 18  1  0
  6 19  1  0
  7 20  1  0
  7 21  1  0
  8 22  1  0
  8 23  1  0
  8 24  1  0
M  END
>  <Energy>  (2) 
0.9963167358251237

>  <Real charge>  (2) 
0

>  <Mult>  (2) 
1

$$$$
mol_1052 411
     RDKit          3D

 24 23  0  0  0  0  0  0  0  0999 V2000
    3.7093    0.3040    0.4372 C   0  0  0  0  0  0  0  0  0  0  0  0
    2.3647    0.7015   -0.1506 C   0  0  0  0  0  0  0  0  0  0  0  0
    1.2602   -0.2683    0.2711 C   0  0  0  0  0  0  0  0  0  0  0  0
   -0.0936    0.1382   -0.3243 C   0  0  0  0  0  0  0  0  0  0  0  0
   -1.2272   -0.7939    0.1220 C   0  0  0  0  0  0  0  0  0  0  0  0
   -0.9174   -2.1206   -0.3077 O   0  0  0  0  0  0  0  0  0  0  0  0
   -2.5892   -0.4089   -0.4680 C   0  0  0  0  0  0  0  0  0  0  0  0
   -3.1068    0.9386    0.0077 C   0  0  0  0  0  0  0  0  0  0  0  0
    3.6741    0.3021    1.5313 H   0  0  0  0  0  0  0  0  0  0  0  0
    4.0046   -0.6950    0.1009 H   0  0  0  0  0  0  0  0  0  0  0  0
    4.4839    1.0107    0.1234 H   0  0  0  0  0  0  0  0  0  0  0  0
    2.4426    0.7245   -1.2438 H   0  0  0  0  0  0  0  0  0  0  0  0
    2.1149    1.7168    0.1786 H   0  0  0  0  0  0  0  0  0  0  0  0
    1.5243   -1.2815   -0.0542 H   0  0  0  0  0  0  0  0  0  0  0  0
    1.1874   -0.2879    1.3653 H   0  0  0  0  0  0  0  0  0  0  0  0
   -0.3147    1.1691   -0.0273 H   0  0  0  0  0  0  0  0  0  0  0  0
   -0.0133    0.1184   -1.4185 H   0  0  0  0  0  0  0  0  0  0  0  0
   -1.2851   -0.8062    1.2167 H   0  0  0  0  0  0  0  0  0  0  0  0
   -1.6143   -2.7088    0.0296 H   0  0  0  0  0  0  0  0  0  0  0  0
   -2.5374   -0.4196   -1.5639 H   0  0  0  0  0  0  0  0  0  0  0  0
   -3.3224   -1.1813   -0.2027 H   0  0  0  0  0  0  0  0  0  0  0  0
   -2.4872    1.7610   -0.3609 H   0  0  0  0  0  0  0  0  0  0  0  0
   -3.1335    0.9857    1.1009 H   0  0  0  0  0  0  0  0  0  0  0  0
   -4.1241    1.1014   -0.3628 H   0  0  0  0  0  0  0  0  0  0  0  0
  1  2  1  0
  2  3  1  0
  3  4  1  0
  4  5  1  0
  5  6  1  0
  5  7  1  0
  7  8  1  0
  1  9  1  0
  1 10  1  0
  1 11  1  0
  2 12  1  0
  2 13  1  0
  3 14  1  0
  3 15  1  0
  4 16  1  0
  4 17  1  0
  5 18  1  0
  6 19  1  0
  7 20  1  0
  7 21  1  0
  8 22  1  0
  8 23  1  0
  8 24  1  0
M  END
>  <Energy>  (3) 
1.2526466223252022

>  <Real charge>  (3) 
0

>  <Mult>  (3) 
1

$$$$
mol_1052 159
     RDKit          3D

 24 23  0  0  0  0  0  0  0  0999 V2000
    3.4999    0.8974   -0.3197 C   0  0  0  0  0  0  0  0  0  0  0  0
    2.5012    0.1170    0.5200 C   0  0  0  0  0  0  0  0  0  0  0  0
    1.1121    0.1136   -0.1203 C   0  0  0  0  0  0  0  0  0  0  0  0
    0.1122   -0.6694    0.7317 C   0  0  0  0  0  0  0  0  0  0  0  0
   -1.2702   -0.8180    0.0821 C   0  0  0  0  0  0  0  0  0  0  0  0
   -2.0611   -1.6691    0.9137 O   0  0  0  0  0  0  0  0  0  0  0  0
   -2.0060    0.5165   -0.0820 C   0  0  0  0  0  0  0  0  0  0  0  0
   -3.3832    0.3458   -0.7123 C   0  0  0  0  0  0  0  0  0  0  0  0
    3.1884    1.9409   -0.4310 H   0  0  0  0  0  0  0  0  0  0  0  0
    4.4856    0.8862    0.1559 H   0  0  0  0  0  0  0  0  0  0  0  0
    3.5995    0.4599   -1.3182 H   0  0  0  0  0  0  0  0  0  0  0  0
    2.8594   -0.9122    0.6393 H   0  0  0  0  0  0  0  0  0  0  0  0
    2.4484    0.5606    1.5211 H   0  0  0  0  0  0  0  0  0  0  0  0
    1.1708   -0.3318   -1.1207 H   0  0  0  0  0  0  0  0  0  0  0  0
    0.7743    1.1484   -0.2431 H   0  0  0  0  0  0  0  0  0  0  0  0
    0.5139   -1.6714    0.9327 H   0  0  0  0  0  0  0  0  0  0  0  0
    0.0063   -0.1957    1.7164 H   0  0  0  0  0  0  0  0  0  0  0  0
   -1.1731   -1.3083   -0.8937 H   0  0  0  0  0  0  0  0  0  0  0  0
   -1.6133   -2.5309    0.9622 H   0  0  0  0  0  0  0  0  0  0  0  0
   -1.4240    1.2002   -0.7083 H   0  0  0  0  0  0  0  0  0  0  0  0
   -2.1354    0.9920    0.8978 H   0  0  0  0  0  0  0  0  0  0  0  0
   -3.3071   -0.1316   -1.6943 H   0  0  0  0  0  0  0  0  0  0  0  0
   -4.0394   -0.2627   -0.0823 H   0  0  0  0  0  0  0  0  0  0  0  0
   -3.8593    1.3224   -0.8459 H   0  0  0  0  0  0  0  0  0  0  0  0
  1  2  1  0
  2  3  1  0
  3  4  1  0
  4  5  1  0
  5  6  1  0
  5  7  1  0
  7  8  1  0
  1  9  1  0
  1 10  1  0
  1 11  1  0
  2 12  1  0
  2 13  1  0
  3 14  1  0
  3 15  1  0
  4 16  1  0
  4 17  1  0
  5 18  1  0
  6 19  1  0
  7 20  1  0
  7 21  1  0
  8 22  1  0
  8 23  1  0
  8 24  1  0
M  END
>  <Energy>  (4) 
1.2745109661838678

>  <Real charge>  (4) 
0

>  <Mult>  (4) 
1

$$$$
mol_1052 271
     RDKit          3D

 24 23  0  0  0  0  0  0  0  0999 V2000
    3.7505   -0.3577   -0.0863 C   0  0  0  0  0  0  0  0  0  0  0  0
    2.3335   -0.8053    0.2352 C   0  0  0  0  0  0  0  0  0  0  0  0
    1.3117    0.2784   -0.1102 C   0  0  0  0  0  0  0  0  0  0  0  0
   -0.1152   -0.1777    0.2180 C   0  0  0  0  0  0  0  0  0  0  0  0
   -1.1501    0.9087   -0.0967 C   0  0  0  0  0  0  0  0  0  0  0  0
   -1.1702    1.1367   -1.5039 O   0  0  0  0  0  0  0  0  0  0  0  0
   -2.5608    0.5538    0.3919 C   0  0  0  0  0  0  0  0  0  0  0  0
   -3.1551   -0.6922   -0.2522 C   0  0  0  0  0  0  0  0  0  0  0  0
    3.8586   -0.1330   -1.1522 H   0  0  0  0  0  0  0  0  0  0  0  0
    4.4643   -1.1473    0.1685 H   0  0  0  0  0  0  0  0  0  0  0  0
    4.0175    0.5384    0.4830 H   0  0  0  0  0  0  0  0  0  0  0  0
    2.2679   -1.0531    1.3010 H   0  0  0  0  0  0  0  0  0  0  0  0
    2.1096   -1.7205   -0.3253 H   0  0  0  0  0  0  0  0  0  0  0  0
    1.5427    1.1917    0.4515 H   0  0  0  0  0  0  0  0  0  0  0  0
    1.3890    0.5256   -1.1757 H   0  0  0  0  0  0  0  0  0  0  0  0
   -0.1749   -0.4470    1.2793 H   0  0  0  0  0  0  0  0  0  0  0  0
   -0.3275   -1.0791   -0.3693 H   0  0  0  0  0  0  0  0  0  0  0  0
   -0.8435    1.8462    0.3825 H   0  0  0  0  0  0  0  0  0  0  0  0
   -1.8146    1.8440   -1.6773 H   0  0  0  0  0  0  0  0  0  0  0  0
   -2.5533    0.4283    1.4809 H   0  0  0  0  0  0  0  0  0  0  0  0
   -3.2304    1.3938    0.1691 H   0  0  0  0  0  0  0  0  0  0  0  0
   -3.1813   -0.6049   -1.3427 H   0  0  0  0  0  0  0  0  0  0  0  0
   -4.1823   -0.8389    0.0971 H   0  0  0  0  0  0  0  0  0  0  0  0
   -2.5861   -1.5886    0.0108 H   0  0  0  0  0  0  0  0  0  0  0  0
  1  2  1  0
  2  3  1  0
  3  4  1  0
  4  5  1  0
  5  6  1  0
  5  7  1  0
  7  8  1  0
  1  9  1  0
  1 10  1  0
  1 11  1  0
  2 12  1  0
  2 13  1  0
  3 14  1  0
  3 15  1  0
  4 16  1  0
  4 17  1  0
  5 18  1  0
  6 19  1  0
  7 20  1  0
  7 21  1  0
  8 22  1  0
  8 23  1  0
  8 24  1  0
M  END
>  <Energy>  (5) 
1.2746217851053332

>  <Real charge>  (5) 
0

>  <Mult>  (5) 
1

$$$$
mol_1052 163
     RDKit          3D

 24 23  0  0  0  0  0  0  0  0999 V2000
   -3.7063   -0.0233   -0.3271 C   0  0  0  0  0  0  0  0  0  0  0  0
   -2.2776    0.1503   -0.8174 C   0  0  0  0  0  0  0  0  0  0  0  0
   -1.2645   -0.2211    0.2660 C   0  0  0  0  0  0  0  0  0  0  0  0
    0.1742   -0.0438   -0.2340 C   0  0  0  0  0  0  0  0  0  0  0  0
    1.2092   -0.3665    0.8520 C   0  0  0  0  0  0  0  0  0  0  0  0
    1.0318   -1.7140    1.2922 O   0  0  0  0  0  0  0  0  0  0  0  0
    2.6581   -0.2135    0.3749 C   0  0  0  0  0  0  0  0  0  0  0  0
    3.0414    1.2146    0.0240 C   0  0  0  0  0  0  0  0  0  0  0  0
   -3.9038    0.6152    0.5398 H   0  0  0  0  0  0  0  0  0  0  0  0
   -4.4136    0.2480   -1.1170 H   0  0  0  0  0  0  0  0  0  0  0  0
   -3.8992   -1.0620   -0.0404 H   0  0  0  0  0  0  0  0  0  0  0  0
   -2.1225   -0.4770   -1.7029 H   0  0  0  0  0  0  0  0  0  0  0  0
   -2.1279    1.1913   -1.1266 H   0  0  0  0  0  0  0  0  0  0  0  0
   -1.4249    0.4086    1.1496 H   0  0  0  0  0  0  0  0  0  0  0  0
   -1.4287   -1.2603    0.5746 H   0  0  0  0  0  0  0  0  0  0  0  0
    0.3043    0.9866   -0.5825 H   0  0  0  0  0  0  0  0  0  0  0  0
    0.3284   -0.7056   -1.0956 H   0  0  0  0  0  0  0  0  0  0  0  0
    1.0429    0.2781    1.7226 H   0  0  0  0  0  0  0  0  0  0  0  0
    1.1638   -2.2972    0.5252 H   0  0  0  0  0  0  0  0  0  0  0  0
    2.8389   -0.8662   -0.4883 H   0  0  0  0  0  0  0  0  0  0  0  0
    3.3292   -0.5780    1.1632 H   0  0  0  0  0  0  0  0  0  0  0  0
    2.8407    1.8922    0.8598 H   0  0  0  0  0  0  0  0  0  0  0  0
    4.1101    1.2700   -0.2072 H   0  0  0  0  0  0  0  0  0  0  0  0
    2.4959    1.5737   -0.8533 H   0  0  0  0  0  0  0  0  0  0  0  0
  1  2  1  0
  2  3  1  0
  3  4  1  0
  4  5  1  0
  5  6  1  0
  5  7  1  0
  7  8  1  0
  1  9  1  0
  1 10  1  0
  1 11  1  0
  2 12  1  0
  2 13  1  0
  3 14  1  0
  3 15  1  0
  4 16  1  0
  4 17  1  0
  5 18  1  0
  6 19  1  0
  7 20  1  0
  7 21  1  0
  8 22  1  0
  8 23  1  0
  8 24  1  0
M  END
>  <Energy>  (6) 
1.2918931913652694

>  <Real charge>  (6) 
0

>  <Mult>  (6) 
1

$$$$
mol_1052 120
     RDKit          3D

 24 23  0  0  0  0  0  0  0  0999 V2000
    3.3986    0.9442   -0.6459 C   0  0  0  0  0  0  0  0  0  0  0  0
    2.5060   -0.2320   -0.2829 C   0  0  0  0  0  0  0  0  0  0  0  0
    1.0621    0.2130   -0.0436 C   0  0  0  0  0  0  0  0  0  0  0  0
    0.1686   -0.9797    0.3163 C   0  0  0  0  0  0  0  0  0  0  0  0
   -1.2839   -0.6053    0.6457 C   0  0  0  0  0  0  0  0  0  0  0  0
   -1.3128    0.2894    1.7553 O   0  0  0  0  0  0  0  0  0  0  0  0
   -2.0217    0.0381   -0.5326 C   0  0  0  0  0  0  0  0  0  0  0  0
   -3.5066    0.2244   -0.2444 C   0  0  0  0  0  0  0  0  0  0  0  0
    4.4254    0.6036   -0.8122 H   0  0  0  0  0  0  0  0  0  0  0  0
    3.0504    1.4331   -1.5614 H   0  0  0  0  0  0  0  0  0  0  0  0
    3.4131    1.6881    0.1570 H   0  0  0  0  0  0  0  0  0  0  0  0
    2.5386   -0.9712   -1.0918 H   0  0  0  0  0  0  0  0  0  0  0  0
    2.9005   -0.7176    0.6172 H   0  0  0  0  0  0  0  0  0  0  0  0
    0.6852    0.7037   -0.9479 H   0  0  0  0  0  0  0  0  0  0  0  0
    1.0396    0.9548    0.7632 H   0  0  0  0  0  0  0  0  0  0  0  0
    0.6021   -1.4789    1.1924 H   0  0  0  0  0  0  0  0  0  0  0  0
    0.1785   -1.7068   -0.5048 H   0  0  0  0  0  0  0  0  0  0  0  0
   -1.8153   -1.5162    0.9467 H   0  0  0  0  0  0  0  0  0  0  0  0
   -0.8593   -0.1474    2.4963 H   0  0  0  0  0  0  0  0  0  0  0  0
   -1.9094   -0.5831   -1.4284 H   0  0  0  0  0  0  0  0  0  0  0  0
   -1.6004    1.0257   -0.7525 H   0  0  0  0  0  0  0  0  0  0  0  0
   -4.0058    0.6678   -1.1119 H   0  0  0  0  0  0  0  0  0  0  0  0
   -3.6662    0.8878    0.6113 H   0  0  0  0  0  0  0  0  0  0  0  0
   -3.9874   -0.7355   -0.0310 H   0  0  0  0  0  0  0  0  0  0  0  0
  1  2  1  0
  2  3  1  0
  3  4  1  0
  4  5  1  0
  5  6  1  0
  5  7  1  0
  7  8  1  0
  1  9  1  0
  1 10  1  0
  1 11  1  0
  2 12  1  0
  2 13  1  0
  3 14  1  0
  3 15  1  0
  4 16  1  0
  4 17  1  0
  5 18  1  0
  6 19  1  0
  7 20  1  0
  7 21  1  0
  8 22  1  0
  8 23  1  0
  8 24  1  0
M  END
>  <Energy>  (7) 
1.3127140195583697

>  <Real charge>  (7) 
0

>  <Mult>  (7) 
1

$$$$
mol_1052 324
     RDKit          3D

 24 23  0  0  0  0  0  0  0  0999 V2000
    3.4616    0.2816    1.0542 C   0  0  0  0  0  0  0  0  0  0  0  0
    2.1114   -0.2469    0.5940 C   0  0  0  0  0  0  0  0  0  0  0  0
    1.4345    0.7229   -0.3750 C   0  0  0  0  0  0  0  0  0  0  0  0
    0.1265    0.1805   -0.9647 C   0  0  0  0  0  0  0  0  0  0  0  0
   -0.9858   -0.0568    0.0657 C   0  0  0  0  0  0  0  0  0  0  0  0
   -1.2497    1.1513    0.7745 O   0  0  0  0  0  0  0  0  0  0  0  0
   -2.2707   -0.5451   -0.6147 C   0  0  0  0  0  0  0  0  0  0  0  0
   -3.3739   -0.8546    0.3887 C   0  0  0  0  0  0  0  0  0  0  0  0
    3.9276   -0.4239    1.7493 H   0  0  0  0  0  0  0  0  0  0  0  0
    3.3523    1.2424    1.5673 H   0  0  0  0  0  0  0  0  0  0  0  0
    4.1393    0.4196    0.2057 H   0  0  0  0  0  0  0  0  0  0  0  0
    1.4809   -0.4075    1.4749 H   0  0  0  0  0  0  0  0  0  0  0  0
    2.2525   -1.2202    0.1102 H   0  0  0  0  0  0  0  0  0  0  0  0
    1.2509    1.6807    0.1265 H   0  0  0  0  0  0  0  0  0  0  0  0
    2.1190    0.9338   -1.2064 H   0  0  0  0  0  0  0  0  0  0  0  0
   -0.2235    0.9121   -1.7047 H   0  0  0  0  0  0  0  0  0  0  0  0
    0.3310   -0.7501   -1.5079 H   0  0  0  0  0  0  0  0  0  0  0  0
   -0.6648   -0.8044    0.7984 H   0  0  0  0  0  0  0  0  0  0  0  0
   -1.5383    1.8186    0.1286 H   0  0  0  0  0  0  0  0  0  0  0  0
   -2.6425    0.2215   -1.3054 H   0  0  0  0  0  0  0  0  0  0  0  0
   -2.0609   -1.4462   -1.2025 H   0  0  0  0  0  0  0  0  0  0  0  0
   -4.2625   -1.2266   -0.1313 H   0  0  0  0  0  0  0  0  0  0  0  0
   -3.6633    0.0384    0.9514 H   0  0  0  0  0  0  0  0  0  0  0  0
   -3.0517   -1.6213    1.1004 H   0  0  0  0  0  0  0  0  0  0  0  0
  1  2  1  0
  2  3  1  0
  3  4  1  0
  4  5  1  0
  5  6  1  0
  5  7  1  0
  7  8  1  0
  1  9  1  0
  1 10  1  0
  1 11  1  0
  2 12  1  0
  2 13  1  0
  3 14  1  0
  3 15  1  0
  4 16  1  0
  4 17  1  0
  5 18  1  0
  6 19  1  0
  7 20  1  0
  7 21  1  0
  8 22  1  0
  8 23  1  0
  8 24  1  0
M  END
>  <Energy>  (8) 
1.447046014496692

>  <Real charge>  (8) 
0

>  <Mult>  (8) 
1

$$$$
mol_1052 370
     RDKit          3D

 24 23  0  0  0  0  0  0  0  0999 V2000
    3.1639    1.0028   -0.4322 C   0  0  0  0  0  0  0  0  0  0  0  0
    2.6801   -0.4134   -0.7029 C   0  0  0  0  0  0  0  0  0  0  0  0
    1.4125   -0.7844    0.0705 C   0  0  0  0  0  0  0  0  0  0  0  0
    0.1853    0.0322   -0.3511 C   0  0  0  0  0  0  0  0  0  0  0  0
   -1.0973   -0.4612    0.3326 C   0  0  0  0  0  0  0  0  0  0  0  0
   -0.9670   -0.3299    1.7464 O   0  0  0  0  0  0  0  0  0  0  0  0
   -2.3194    0.3300   -0.1471 C   0  0  0  0  0  0  0  0  0  0  0  0
   -3.6160   -0.1816    0.4665 C   0  0  0  0  0  0  0  0  0  0  0  0
    3.3089    1.1707    0.6397 H   0  0  0  0  0  0  0  0  0  0  0  0
    4.1213    1.1748   -0.9345 H   0  0  0  0  0  0  0  0  0  0  0  0
    2.4557    1.7474   -0.8071 H   0  0  0  0  0  0  0  0  0  0  0  0
    2.5124   -0.5422   -1.7785 H   0  0  0  0  0  0  0  0  0  0  0  0
    3.4759   -1.1130   -0.4207 H   0  0  0  0  0  0  0  0  0  0  0  0
    1.2088   -1.8491   -0.0982 H   0  0  0  0  0  0  0  0  0  0  0  0
    1.5939   -0.6633    1.1451 H   0  0  0  0  0  0  0  0  0  0  0  0
    0.3492    1.0843   -0.0897 H   0  0  0  0  0  0  0  0  0  0  0  0
    0.0651   -0.0246   -1.4396 H   0  0  0  0  0  0  0  0  0  0  0  0
   -1.2424   -1.5255    0.1146 H   0  0  0  0  0  0  0  0  0  0  0  0
   -0.8361    0.6125    1.9473 H   0  0  0  0  0  0  0  0  0  0  0  0
   -2.2082    1.3878    0.1208 H   0  0  0  0  0  0  0  0  0  0  0  0
   -2.3952    0.2718   -1.2390 H   0  0  0  0  0  0  0  0  0  0  0  0
   -3.6106   -0.0762    1.5559 H   0  0  0  0  0  0  0  0  0  0  0  0
   -3.7743   -1.2370    0.2229 H   0  0  0  0  0  0  0  0  0  0  0  0
   -4.4667    0.3873    0.0783 H   0  0  0  0  0  0  0  0  0  0  0  0
  1  2  1  0
  2  3  1  0
  3  4  1  0
  4  5  1  0
  5  6  1  0
  5  7  1  0
  7  8  1  0
  1  9  1  0
  1 10  1  0
  1 11  1  0
  2 12  1  0
  2 13  1  0
  3 14  1  0
  3 15  1  0
  4 16  1  0
  4 17  1  0
  5 18  1  0
  6 19  1  0
  7 20  1  0
  7 21  1  0
  8 22  1  0
  8 23  1  0
  8 24  1  0
M  END
>  <Energy>  (9) 
1.4809788855237311

>  <Real charge>  (9) 
0

>  <Mult>  (9) 
1

$$$$
mol_1052 451
     RDKit          3D

 24 23  0  0  0  0  0  0  0  0999 V2000
    3.3486   -0.9143    0.2547 C   0  0  0  0  0  0  0  0  0  0  0  0
    2.2504   -0.3892   -0.6562 C   0  0  0  0  0  0  0  0  0  0  0  0
    1.0388    0.0892    0.1449 C   0  0  0  0  0  0  0  0  0  0  0  0
   -0.0629    0.6122   -0.7771 C   0  0  0  0  0  0  0  0  0  0  0  0
   -1.2589    1.2112   -0.0280 C   0  0  0  0  0  0  0  0  0  0  0  0
   -2.1764    1.7008   -1.0077 O   0  0  0  0  0  0  0  0  0  0  0  0
   -1.9907    0.2522    0.9203 C   0  0  0  0  0  0  0  0  0  0  0  0
   -2.5413   -0.9966    0.2439 C   0  0  0  0  0  0  0  0  0  0  0  0
    4.2048   -1.2502   -0.3385 H   0  0  0  0  0  0  0  0  0  0  0  0
    3.6953   -0.1349    0.9407 H   0  0  0  0  0  0  0  0  0  0  0  0
    2.9934   -1.7623    0.8490 H   0  0  0  0  0  0  0  0  0  0  0  0
    2.6480    0.4354   -1.2593 H   0  0  0  0  0  0  0  0  0  0  0  0
    1.9483   -1.1826   -1.3498 H   0  0  0  0  0  0  0  0  0  0  0  0
    1.3464    0.8824    0.8369 H   0  0  0  0  0  0  0  0  0  0  0  0
    0.6598   -0.7421    0.7499 H   0  0  0  0  0  0  0  0  0  0  0  0
   -0.4000   -0.1832   -1.4535 H   0  0  0  0  0  0  0  0  0  0  0  0
    0.3514    1.3868   -1.4366 H   0  0  0  0  0  0  0  0  0  0  0  0
   -0.9147    2.0787    0.5478 H   0  0  0  0  0  0  0  0  0  0  0  0
   -2.9119    2.1259   -0.5345 H   0  0  0  0  0  0  0  0  0  0  0  0
   -2.8379    0.7847    1.3705 H   0  0  0  0  0  0  0  0  0  0  0  0
   -1.3314   -0.0426    1.7439 H   0  0  0  0  0  0  0  0  0  0  0  0
   -1.7375   -1.6292   -0.1438 H   0  0  0  0  0  0  0  0  0  0  0  0
   -3.2111   -0.7406   -0.5827 H   0  0  0  0  0  0  0  0  0  0  0  0
   -3.1109   -1.5916    0.9653 H   0  0  0  0  0  0  0  0  0  0  0  0
  1  2  1  0
  2  3  1  0
  3  4  1  0
  4  5  1  0
  5  6  1  0
  5  7  1  0
  7  8  1  0
  1  9  1  0
  1 10  1  0
  1 11  1  0
  2 12  1  0
  2 13  1  0
  3 14  1  0
  3 15  1  0
  4 16  1  0
  4 17  1  0
  5 18  1  0
  6 19  1  0
  7 20  1  0
  7 21  1  0
  8 22  1  0
  8 23  1  0
  8 24  1  0
M  END
>  <Energy>  (10) 
1.5206064605372203

>  <Real charge>  (10) 
0

>  <Mult>  (10) 
1

$$$$
mol_1052 448
     RDKit          3D

 24 23  0  0  0  0  0  0  0  0999 V2000
    3.3525   -0.1977    0.3680 C   0  0  0  0  0  0  0  0  0  0  0  0
    2.2073    0.4222   -0.4169 C   0  0  0  0  0  0  0  0  0  0  0  0
    0.8824   -0.2860   -0.1290 C   0  0  0  0  0  0  0  0  0  0  0  0
   -0.2672    0.3488   -0.9198 C   0  0  0  0  0  0  0  0  0  0  0  0
   -1.6185   -0.3589   -0.7414 C   0  0  0  0  0  0  0  0  0  0  0  0
   -1.5228   -1.6978   -1.2297 O   0  0  0  0  0  0  0  0  0  0  0  0
   -2.1402   -0.4289    0.6971 C   0  0  0  0  0  0  0  0  0  0  0  0
   -2.3339    0.9315    1.3456 C   0  0  0  0  0  0  0  0  0  0  0  0
    4.2893    0.3233    0.1470 H   0  0  0  0  0  0  0  0  0  0  0  0
    3.1718   -0.1294    1.4455 H   0  0  0  0  0  0  0  0  0  0  0  0
    3.4808   -1.2530    0.1070 H   0  0  0  0  0  0  0  0  0  0  0  0
    2.4347    0.3668   -1.4879 H   0  0  0  0  0  0  0  0  0  0  0  0
    2.1262    1.4840   -0.1565 H   0  0  0  0  0  0  0  0  0  0  0  0
    0.6741   -0.2300    0.9453 H   0  0  0  0  0  0  0  0  0  0  0  0
    0.9733   -1.3473   -0.3882 H   0  0  0  0  0  0  0  0  0  0  0  0
   -0.0032    0.3207   -1.9851 H   0  0  0  0  0  0  0  0  0  0  0  0
   -0.3622    1.4064   -0.6481 H   0  0  0  0  0  0  0  0  0  0  0  0
   -2.3648    0.1535   -1.3605 H   0  0  0  0  0  0  0  0  0  0  0  0
   -1.2365   -1.6521   -2.1578 H   0  0  0  0  0  0  0  0  0  0  0  0
   -1.4789   -1.0468    1.3162 H   0  0  0  0  0  0  0  0  0  0  0  0
   -3.1012   -0.9596    0.6929 H   0  0  0  0  0  0  0  0  0  0  0  0
   -2.8007    0.8158    2.3290 H   0  0  0  0  0  0  0  0  0  0  0  0
   -2.9826    1.5684    0.7360 H   0  0  0  0  0  0  0  0  0  0  0  0
   -1.3796    1.4461    1.4912 H   0  0  0  0  0  0  0  0  0  0  0  0
  1  2  1  0
  2  3  1  0
  3  4  1  0
  4  5  1  0
  5  6  1  0
  5  7  1  0
  7  8  1  0
  1  9  1  0
  1 10  1  0
  1 11  1  0
  2 12  1  0
  2 13  1  0
  3 14  1  0
  3 15  1  0
  4 16  1  0
  4 17  1  0
  5 18  1  0
  6 19  1  0
  7 20  1  0
  7 21  1  0
  8 22  1  0
  8 23  1  0
  8 24  1  0
M  END
>  <Energy>  (11) 
1.5424434031712122

>  <Real charge>  (11) 
0

>  <Mult>  (11) 
1

$$$$
mol_1052 392
     RDKit          3D

 24 23  0  0  0  0  0  0  0  0999 V2000
    3.2444    0.7288    0.5717 C   0  0  0  0  0  0  0  0  0  0  0  0
    2.7427   -0.5046   -0.1633 C   0  0  0  0  0  0  0  0  0  0  0  0
    1.3147   -0.9048    0.2154 C   0  0  0  0  0  0  0  0  0  0  0  0
    0.2626    0.1261   -0.2105 C   0  0  0  0  0  0  0  0  0  0  0  0
   -1.1637   -0.3345    0.1211 C   0  0  0  0  0  0  0  0  0  0  0  0
   -1.4594   -1.5328   -0.5928 O   0  0  0  0  0  0  0  0  0  0  0  0
   -2.1913    0.7443   -0.2399 C   0  0  0  0  0  0  0  0  0  0  0  0
   -3.6103    0.3401    0.1377 C   0  0  0  0  0  0  0  0  0  0  0  0
    4.2992    0.9029    0.3356 H   0  0  0  0  0  0  0  0  0  0  0  0
    2.6888    1.6245    0.2794 H   0  0  0  0  0  0  0  0  0  0  0  0
    3.1564    0.6038    1.6555 H   0  0  0  0  0  0  0  0  0  0  0  0
    2.8096   -0.3377   -1.2447 H   0  0  0  0  0  0  0  0  0  0  0  0
    3.4105   -1.3427    0.0696 H   0  0  0  0  0  0  0  0  0  0  0  0
    1.2540   -1.0679    1.2983 H   0  0  0  0  0  0  0  0  0  0  0  0
    1.0965   -1.8678   -0.2618 H   0  0  0  0  0  0  0  0  0  0  0  0
    0.3530    0.2929   -1.2912 H   0  0  0  0  0  0  0  0  0  0  0  0
    0.4544    1.0817    0.2898 H   0  0  0  0  0  0  0  0  0  0  0  0
   -1.2346   -0.5642    1.1905 H   0  0  0  0  0  0  0  0  0  0  0  0
   -1.3960   -1.3368   -1.5432 H   0  0  0  0  0  0  0  0  0  0  0  0
   -2.1662    0.9377   -1.3192 H   0  0  0  0  0  0  0  0  0  0  0  0
   -1.9412    1.6820    0.2697 H   0  0  0  0  0  0  0  0  0  0  0  0
   -3.6873    0.1390    1.2109 H   0  0  0  0  0  0  0  0  0  0  0  0
   -4.3093    1.1460   -0.1074 H   0  0  0  0  0  0  0  0  0  0  0  0
   -3.9275   -0.5560   -0.4047 H   0  0  0  0  0  0  0  0  0  0  0  0
  1  2  1  0
  2  3  1  0
  3  4  1  0
  4  5  1  0
  5  6  1  0
  5  7  1  0
  7  8  1  0
  1  9  1  0
  1 10  1  0
  1 11  1  0
  2 12  1  0
  2 13  1  0
  3 14  1  0
  3 15  1  0
  4 16  1  0
  4 17  1  0
  5 18  1  0
  6 19  1  0
  7 20  1  0
  7 21  1  0
  8 22  1  0
  8 23  1  0
  8 24  1  0
M  END
>  <Energy>  (12) 
1.5634524919641337

>  <Real charge>  (12) 
0

>  <Mult>  (12) 
1

$$$$
mol_1052 88
     RDKit          3D

 24 23  0  0  0  0  0  0  0  0999 V2000
   -3.5663   -0.0539    1.0137 C   0  0  0  0  0  0  0  0  0  0  0  0
   -2.5712    0.3406   -0.0660 C   0  0  0  0  0  0  0  0  0  0  0  0
   -1.1569   -0.1310    0.2759 C   0  0  0  0  0  0  0  0  0  0  0  0
   -0.1611    0.2726   -0.8125 C   0  0  0  0  0  0  0  0  0  0  0  0
    1.2535   -0.2797   -0.5933 C   0  0  0  0  0  0  0  0  0  0  0  0
    2.0092    0.0472   -1.7606 O   0  0  0  0  0  0  0  0  0  0  0  0
    1.9405    0.3080    0.6455 C   0  0  0  0  0  0  0  0  0  0  0  0
    3.3438   -0.2445    0.8637 C   0  0  0  0  0  0  0  0  0  0  0  0
   -3.6029   -1.1412    1.1352 H   0  0  0  0  0  0  0  0  0  0  0  0
   -3.2970    0.3910    1.9770 H   0  0  0  0  0  0  0  0  0  0  0  0
   -4.5702    0.2923    0.7486 H   0  0  0  0  0  0  0  0  0  0  0  0
   -2.8880   -0.0930   -1.0217 H   0  0  0  0  0  0  0  0  0  0  0  0
   -2.5817    1.4303   -0.1844 H   0  0  0  0  0  0  0  0  0  0  0  0
   -0.8605    0.3010    1.2379 H   0  0  0  0  0  0  0  0  0  0  0  0
   -1.1523   -1.2214    0.3924 H   0  0  0  0  0  0  0  0  0  0  0  0
   -0.5247   -0.0805   -1.7868 H   0  0  0  0  0  0  0  0  0  0  0  0
   -0.1205    1.3666   -0.8964 H   0  0  0  0  0  0  0  0  0  0  0  0
    1.2087   -1.3729   -0.5215 H   0  0  0  0  0  0  0  0  0  0  0  0
    2.8246   -0.4813   -1.7430 H   0  0  0  0  0  0  0  0  0  0  0  0
    2.0146    1.3977    0.5466 H   0  0  0  0  0  0  0  0  0  0  0  0
    1.3496    0.0969    1.5426 H   0  0  0  0  0  0  0  0  0  0  0  0
    3.7598    0.1464    1.7979 H   0  0  0  0  0  0  0  0  0  0  0  0
    3.3291   -1.3369    0.9299 H   0  0  0  0  0  0  0  0  0  0  0  0
    4.0199    0.0455    0.0538 H   0  0  0  0  0  0  0  0  0  0  0  0
  1  2  1  0
  2  3  1  0
  3  4  1  0
  4  5  1  0
  5  6  1  0
  5  7  1  0
  7  8  1  0
  1  9  1  0
  1 10  1  0
  1 11  1  0
  2 12  1  0
  2 13  1  0
  3 14  1  0
  3 15  1  0
  4 16  1  0
  4 17  1  0
  5 18  1  0
  6 19  1  0
  7 20  1  0
  7 21  1  0
  8 22  1  0
  8 23  1  0
  8 24  1  0
M  END
>  <Energy>  (13) 
1.6623697170953013

>  <Real charge>  (13) 
0

>  <Mult>  (13) 
1

$$$$
mol_1052 401
     RDKit          3D

 24 23  0  0  0  0  0  0  0  0999 V2000
    3.6607   -0.4072    0.2718 C   0  0  0  0  0  0  0  0  0  0  0  0
    2.3054   -0.5562   -0.4010 C   0  0  0  0  0  0  0  0  0  0  0  0
    1.2129    0.1878    0.3685 C   0  0  0  0  0  0  0  0  0  0  0  0
   -0.1504    0.0363   -0.3169 C   0  0  0  0  0  0  0  0  0  0  0  0
   -1.2910    0.6882    0.4770 C   0  0  0  0  0  0  0  0  0  0  0  0
   -1.0525    2.0910    0.5980 O   0  0  0  0  0  0  0  0  0  0  0  0
   -2.6567    0.5280   -0.2010 C   0  0  0  0  0  0  0  0  0  0  0  0
   -3.1448   -0.9097   -0.2721 C   0  0  0  0  0  0  0  0  0  0  0  0
    4.4262   -0.9471   -0.2943 H   0  0  0  0  0  0  0  0  0  0  0  0
    3.6406   -0.8127    1.2884 H   0  0  0  0  0  0  0  0  0  0  0  0
    3.9578    0.6449    0.3270 H   0  0  0  0  0  0  0  0  0  0  0  0
    2.3677   -0.1704   -1.4252 H   0  0  0  0  0  0  0  0  0  0  0  0
    2.0539   -1.6209   -0.4697 H   0  0  0  0  0  0  0  0  0  0  0  0
    1.4827    1.2478    0.4386 H   0  0  0  0  0  0  0  0  0  0  0  0
    1.1544   -0.2023    1.3918 H   0  0  0  0  0  0  0  0  0  0  0  0
   -0.0910    0.4936   -1.3126 H   0  0  0  0  0  0  0  0  0  0  0  0
   -0.3558   -1.0307   -0.4558 H   0  0  0  0  0  0  0  0  0  0  0  0
   -1.3378    0.2693    1.4893 H   0  0  0  0  0  0  0  0  0  0  0  0
   -0.3237    2.2141    1.2291 H   0  0  0  0  0  0  0  0  0  0  0  0
   -3.3956    1.1250    0.3490 H   0  0  0  0  0  0  0  0  0  0  0  0
   -2.6262    0.9583   -1.2099 H   0  0  0  0  0  0  0  0  0  0  0  0
   -4.1661   -0.9396   -0.6654 H   0  0  0  0  0  0  0  0  0  0  0  0
   -2.5198   -1.5153   -0.9345 H   0  0  0  0  0  0  0  0  0  0  0  0
   -3.1508   -1.3723    0.7198 H   0  0  0  0  0  0  0  0  0  0  0  0
  1  2  1  0
  2  3  1  0
  3  4  1  0
  4  5  1  0
  5  6  1  0
  5  7  1  0
  7  8  1  0
  1  9  1  0
  1 10  1  0
  1 11  1  0
  2 12  1  0
  2 13  1  0
  3 14  1  0
  3 15  1  0
  4 16  1  0
  4 17  1  0
  5 18  1  0
  6 19  1  0
  7 20  1  0
  7 21  1  0
  8 22  1  0
  8 23  1  0
  8 24  1  0
M  END
>  <Energy>  (14) 
1.6658776253265841

>  <Real charge>  (14) 
0

>  <Mult>  (14) 
1

$$$$
mol_1052 379
     RDKit          3D

 24 23  0  0  0  0  0  0  0  0999 V2000
    3.7124    0.4392   -0.4193 C   0  0  0  0  0  0  0  0  0  0  0  0
    2.3232    0.6576    0.1585 C   0  0  0  0  0  0  0  0  0  0  0  0
    1.2867   -0.2374   -0.5213 C   0  0  0  0  0  0  0  0  0  0  0  0
   -0.1117   -0.0143    0.0664 C   0  0  0  0  0  0  0  0  0  0  0  0
   -1.1585   -0.9272   -0.5850 C   0  0  0  0  0  0  0  0  0  0  0  0
   -1.2897   -0.6167   -1.9702 O   0  0  0  0  0  0  0  0  0  0  0  0
   -2.5333   -0.8608    0.0935 C   0  0  0  0  0  0  0  0  0  0  0  0
   -3.1885    0.5144    0.0827 C   0  0  0  0  0  0  0  0  0  0  0  0
    3.7328    0.6686   -1.4895 H   0  0  0  0  0  0  0  0  0  0  0  0
    4.0351   -0.5980   -0.2837 H   0  0  0  0  0  0  0  0  0  0  0  0
    4.4374    1.0887    0.0812 H   0  0  0  0  0  0  0  0  0  0  0  0
    2.3451    0.4511    1.2349 H   0  0  0  0  0  0  0  0  0  0  0  0
    2.0441    1.7105    0.0355 H   0  0  0  0  0  0  0  0  0  0  0  0
    1.5729   -1.2889   -0.3972 H   0  0  0  0  0  0  0  0  0  0  0  0
    1.2763   -0.0298   -1.5980 H   0  0  0  0  0  0  0  0  0  0  0  0
   -0.0862   -0.1979    1.1472 H   0  0  0  0  0  0  0  0  0  0  0  0
   -0.3816    1.0373   -0.0871 H   0  0  0  0  0  0  0  0  0  0  0  0
   -0.8099   -1.9652   -0.5289 H   0  0  0  0  0  0  0  0  0  0  0  0
   -1.4520    0.3381   -2.0527 H   0  0  0  0  0  0  0  0  0  0  0  0
   -2.4447   -1.2043    1.1308 H   0  0  0  0  0  0  0  0  0  0  0  0
   -3.2100   -1.5550   -0.4203 H   0  0  0  0  0  0  0  0  0  0  0  0
   -3.3260    0.8861   -0.9369 H   0  0  0  0  0  0  0  0  0  0  0  0
   -4.1762    0.4593    0.5523 H   0  0  0  0  0  0  0  0  0  0  0  0
   -2.5976    1.2445    0.6432 H   0  0  0  0  0  0  0  0  0  0  0  0
  1  2  1  0
  2  3  1  0
  3  4  1  0
  4  5  1  0
  5  6  1  0
  5  7  1  0
  7  8  1  0
  1  9  1  0
  1 10  1  0
  1 11  1  0
  2 12  1  0
  2 13  1  0
  3 14  1  0
  3 15  1  0
  4 16  1  0
  4 17  1  0
  5 18  1  0
  6 19  1  0
  7 20  1  0
  7 21  1  0
  8 22  1  0
  8 23  1  0
  8 24  1  0
M  END
>  <Energy>  (15) 
1.6795936421491604

>  <Real charge>  (15) 
0

>  <Mult>  (15) 
1

$$$$
