mol_683 28
     RDKit          3D

 27 29  0  0  0  0  0  0  0  0999 V2000
    0.0551   -2.5291    0.5890 C   0  0  0  0  0  0  0  0  0  0  0  0
    0.0239   -1.0578    0.2292 C   0  0  0  0  0  0  0  0  0  0  0  0
    1.2503   -0.3226    0.1408 C   0  0  0  0  0  0  0  0  0  0  0  0
    2.5320   -0.8653    0.4112 C   0  0  0  0  0  0  0  0  0  0  0  0
    3.7017   -0.1084    0.2956 C   0  0  0  0  0  0  0  0  0  0  0  0
    3.6284    1.2204   -0.0909 C   0  0  0  0  0  0  0  0  0  0  0  0
    2.3852    1.7901   -0.3514 C   0  0  0  0  0  0  0  0  0  0  0  0
    1.2018    1.0396   -0.2340 C   0  0  0  0  0  0  0  0  0  0  0  0
   -0.0313    1.6511   -0.4839 C   0  0  0  0  0  0  0  0  0  0  0  0
   -1.2398    0.9595   -0.3496 C   0  0  0  0  0  0  0  0  0  0  0  0
   -2.4534    1.6314   -0.5804 C   0  0  0  0  0  0  0  0  0  0  0  0
   -3.6757    0.9807   -0.4365 C   0  0  0  0  0  0  0  0  0  0  0  0
   -3.6980   -0.3513   -0.0545 C   0  0  0  0  0  0  0  0  0  0  0  0
   -2.4974   -1.0304    0.1732 C   0  0  0  0  0  0  0  0  0  0  0  0
   -1.2342   -0.4041    0.0232 C   0  0  0  0  0  0  0  0  0  0  0  0
   -0.7679   -3.0817    0.1275 H   0  0  0  0  0  0  0  0  0  0  0  0
    0.9524   -3.0252    0.2089 H   0  0  0  0  0  0  0  0  0  0  0  0
    0.0077   -2.6498    1.6754 H   0  0  0  0  0  0  0  0  0  0  0  0
    2.6450   -1.8973    0.7315 H   0  0  0  0  0  0  0  0  0  0  0  0
    4.6653   -0.5624    0.5109 H   0  0  0  0  0  0  0  0  0  0  0  0
    4.5325    1.8155   -0.1838 H   0  0  0  0  0  0  0  0  0  0  0  0
    2.3453    2.8372   -0.6450 H   0  0  0  0  0  0  0  0  0  0  0  0
   -0.0521    2.7010   -0.7728 H   0  0  0  0  0  0  0  0  0  0  0  0
   -2.4545    2.6797   -0.8722 H   0  0  0  0  0  0  0  0  0  0  0  0
   -4.6040    1.5157   -0.6161 H   0  0  0  0  0  0  0  0  0  0  0  0
   -4.6459   -0.8679    0.0703 H   0  0  0  0  0  0  0  0  0  0  0  0
   -2.5724   -2.0685    0.4846 H   0  0  0  0  0  0  0  0  0  0  0  0
  1  2  1  0
  2  3  2  0
  3  4  1  0
  4  5  2  0
  5  6  1  0
  6  7  2  0
  7  8  1  0
  8  9  2  0
  9 10  1  0
 10 11  2  0
 11 12  1  0
 12 13  2  0
 13 14  1  0
 14 15  2  0
 15  2  1  0
  8  3  1  0
 15 10  1  0
  1 16  1  0
  1 17  1  0
  1 18  1  0
  4 19  1  0
  5 20  1  0
  6 21  1  0
  7 22  1  0
  9 23  1  0
 11 24  1  0
 12 25  1  0
 13 26  1  0
 14 27  1  0
M  END
>  <Energy>  (1) 
53.14164234377372

>  <Real charge>  (1) 
0

>  <Mult>  (1) 
1

$$$$
