mol_625 19
     RDKit          3D

 42 45  0  0  0  0  0  0  0  0999 V2000
   -2.8156    0.8140   -1.8418 C   0  0  0  0  0  0  0  0  0  0  0  0
   -2.4820   -0.2196   -0.7655 C   0  0  0  0  0  0  0  0  0  0  0  0
   -1.6213   -1.3644   -1.3211 C   0  0  0  0  0  0  0  0  0  0  0  0
   -0.1415   -1.0069   -1.4578 C   0  0  0  0  0  0  0  0  0  0  0  0
    0.4522   -0.5188   -0.1218 C   0  0  0  0  0  0  0  0  0  0  0  0
   -0.3550    0.7139    0.3540 C   0  0  0  0  0  0  0  0  0  0  0  0
    0.2529    1.2611    1.6479 C   0  0  0  0  0  0  0  0  0  0  0  0
    1.6564    1.7905    1.3738 C   0  0  0  0  0  0  0  0  0  0  0  0
    2.5075    0.8365    0.5730 C   0  0  0  0  0  0  0  0  0  0  0  0
    3.8939    1.0655    0.5388 C   0  0  0  0  0  0  0  0  0  0  0  0
    4.7285    0.2244   -0.1829 C   0  0  0  0  0  0  0  0  0  0  0  0
    6.0650    0.4915   -0.1753 O   0  0  0  0  0  0  0  0  0  0  0  0
    4.2084   -0.8557   -0.8786 C   0  0  0  0  0  0  0  0  0  0  0  0
    2.8299   -1.0856   -0.8601 C   0  0  0  0  0  0  0  0  0  0  0  0
    1.9528   -0.2334   -0.1628 C   0  0  0  0  0  0  0  0  0  0  0  0
   -1.8640    0.4417    0.4887 C   0  0  0  0  0  0  0  0  0  0  0  0
   -2.2785   -0.4825    1.6411 C   0  0  0  0  0  0  0  0  0  0  0  0
   -3.7307   -0.8309    1.3347 C   0  0  0  0  0  0  0  0  0  0  0  0
   -3.7547   -0.8144   -0.1732 C   0  0  0  0  0  0  0  0  0  0  0  0
   -4.6951   -1.2352   -0.8361 O   0  0  0  0  0  0  0  0  0  0  0  0
   -3.5066    1.5747   -1.4606 H   0  0  0  0  0  0  0  0  0  0  0  0
   -3.3047    0.3438   -2.7025 H   0  0  0  0  0  0  0  0  0  0  0  0
   -1.9185    1.3258   -2.2037 H   0  0  0  0  0  0  0  0  0  0  0  0
   -2.0065   -1.6853   -2.2975 H   0  0  0  0  0  0  0  0  0  0  0  0
   -1.7027   -2.2488   -0.6743 H   0  0  0  0  0  0  0  0  0  0  0  0
    0.3751   -1.9034   -1.8159 H   0  0  0  0  0  0  0  0  0  0  0  0
   -0.0074   -0.2422   -2.2332 H   0  0  0  0  0  0  0  0  0  0  0  0
    0.3346   -1.3249    0.6156 H   0  0  0  0  0  0  0  0  0  0  0  0
   -0.2497    1.4987   -0.4110 H   0  0  0  0  0  0  0  0  0  0  0  0
   -0.3628    2.0707    2.0569 H   0  0  0  0  0  0  0  0  0  0  0  0
    0.2982    0.4729    2.4101 H   0  0  0  0  0  0  0  0  0  0  0  0
    1.5868    2.7337    0.8172 H   0  0  0  0  0  0  0  0  0  0  0  0
    2.1416    2.0084    2.3330 H   0  0  0  0  0  0  0  0  0  0  0  0
    4.3273    1.9017    1.0823 H   0  0  0  0  0  0  0  0  0  0  0  0
    6.5147   -0.1720   -0.7233 H   0  0  0  0  0  0  0  0  0  0  0  0
    4.8509   -1.5311   -1.4341 H   0  0  0  0  0  0  0  0  0  0  0  0
    2.4572   -1.9544   -1.3956 H   0  0  0  0  0  0  0  0  0  0  0  0
   -2.3600    1.4089    0.6643 H   0  0  0  0  0  0  0  0  0  0  0  0
   -1.6742   -1.3958    1.6663 H   0  0  0  0  0  0  0  0  0  0  0  0
   -2.1874    0.0032    2.6177 H   0  0  0  0  0  0  0  0  0  0  0  0
   -4.0025   -1.8141    1.7244 H   0  0  0  0  0  0  0  0  0  0  0  0
   -4.4127   -0.0618    1.7083 H   0  0  0  0  0  0  0  0  0  0  0  0
  1  2  1  0
  2  3  1  0
  3  4  1  0
  4  5  1  0
  5  6  1  0
  6  7  1  0
  7  8  1  0
  8  9  1  0
  9 10  2  0
 10 11  1  0
 11 12  1  0
 11 13  2  0
 13 14  1  0
 14 15  2  0
  6 16  1  0
 16 17  1  0
 17 18  1  0
 18 19  1  0
 19 20  2  0
 19  2  1  0
 16  2  1  0
 15  5  1  0
 15  9  1  0
  1 21  1  0
  1 22  1  0
  1 23  1  0
  3 24  1  0
  3 25  1  0
  4 26  1  0
  4 27  1  0
  5 28  1  0
  6 29  1  0
  7 30  1  0
  7 31  1  0
  8 32  1  0
  8 33  1  0
 10 34  1  0
 12 35  1  0
 13 36  1  0
 14 37  1  0
 16 38  1  0
 17 39  1  0
 17 40  1  0
 18 41  1  0
 18 42  1  0
M  END
>  <Energy>  (1) 
45.54723144636612

>  <Real charge>  (1) 
0

>  <Mult>  (1) 
1

$$$$
mol_625 93
     RDKit          3D

 42 45  0  0  0  0  0  0  0  0999 V2000
   -2.2831    1.4353    1.5999 C   0  0  0  0  0  0  0  0  0  0  0  0
   -1.8323    0.9750    0.2010 C   0  0  0  0  0  0  0  0  0  0  0  0
   -0.8113    1.9781   -0.3423 C   0  0  0  0  0  0  0  0  0  0  0  0
   -0.0771    1.4914   -1.5837 C   0  0  0  0  0  0  0  0  0  0  0  0
    0.6169    0.1389   -1.3599 C   0  0  0  0  0  0  0  0  0  0  0  0
   -0.4640   -0.9077   -1.0082 C   0  0  0  0  0  0  0  0  0  0  0  0
    0.2177   -2.2725   -0.8225 C   0  0  0  0  0  0  0  0  0  0  0  0
    1.2223   -2.2686    0.3249 C   0  0  0  0  0  0  0  0  0  0  0  0
    2.0777   -1.0269    0.3784 C   0  0  0  0  0  0  0  0  0  0  0  0
    3.1778   -1.0292    1.2532 C   0  0  0  0  0  0  0  0  0  0  0  0
    4.0044    0.0811    1.3481 C   0  0  0  0  0  0  0  0  0  0  0  0
    5.0582    0.0201    2.2103 O   0  0  0  0  0  0  0  0  0  0  0  0
    3.7608    1.2078    0.5786 C   0  0  0  0  0  0  0  0  0  0  0  0
    2.6649    1.2235   -0.2883 C   0  0  0  0  0  0  0  0  0  0  0  0
    1.7899    0.1253   -0.3846 C   0  0  0  0  0  0  0  0  0  0  0  0
   -1.3552   -0.5015    0.2062 C   0  0  0  0  0  0  0  0  0  0  0  0
   -2.6742   -1.2995    0.2043 C   0  0  0  0  0  0  0  0  0  0  0  0
   -3.5983   -0.5475   -0.7498 C   0  0  0  0  0  0  0  0  0  0  0  0
   -3.0875    0.8694   -0.6575 C   0  0  0  0  0  0  0  0  0  0  0  0
   -3.6367    1.8168   -1.2066 O   0  0  0  0  0  0  0  0  0  0  0  0
   -3.1076    0.8330    1.9957 H   0  0  0  0  0  0  0  0  0  0  0  0
   -2.6388    2.4722    1.5725 H   0  0  0  0  0  0  0  0  0  0  0  0
   -1.4551    1.3828    2.3153 H   0  0  0  0  0  0  0  0  0  0  0  0
   -0.0732    2.2069    0.4368 H   0  0  0  0  0  0  0  0  0  0  0  0
   -1.3040    2.9295   -0.5800 H   0  0  0  0  0  0  0  0  0  0  0  0
    0.6322    2.2572   -1.9143 H   0  0  0  0  0  0  0  0  0  0  0  0
   -0.7975    1.3900   -2.4065 H   0  0  0  0  0  0  0  0  0  0  0  0
    1.0533   -0.1513   -2.3276 H   0  0  0  0  0  0  0  0  0  0  0  0
   -1.1116   -0.9992   -1.8914 H   0  0  0  0  0  0  0  0  0  0  0  0
   -0.5168   -3.0690   -0.6640 H   0  0  0  0  0  0  0  0  0  0  0  0
    0.7431   -2.5295   -1.7526 H   0  0  0  0  0  0  0  0  0  0  0  0
    0.6925   -2.3662    1.2801 H   0  0  0  0  0  0  0  0  0  0  0  0
    1.8658   -3.1516    0.2245 H   0  0  0  0  0  0  0  0  0  0  0  0
    3.3959   -1.9043    1.8608 H   0  0  0  0  0  0  0  0  0  0  0  0
    5.5422    0.8608    2.1649 H   0  0  0  0  0  0  0  0  0  0  0  0
    4.4074    2.0777    0.6312 H   0  0  0  0  0  0  0  0  0  0  0  0
    2.5130    2.1136   -0.8928 H   0  0  0  0  0  0  0  0  0  0  0  0
   -0.8144   -0.6992    1.1379 H   0  0  0  0  0  0  0  0  0  0  0  0
   -3.1086   -1.3076    1.2113 H   0  0  0  0  0  0  0  0  0  0  0  0
   -2.5584   -2.3449   -0.0940 H   0  0  0  0  0  0  0  0  0  0  0  0
   -3.4890   -0.9011   -1.7785 H   0  0  0  0  0  0  0  0  0  0  0  0
   -4.6412   -0.6090   -0.4311 H   0  0  0  0  0  0  0  0  0  0  0  0
  1  2  1  0
  2  3  1  0
  3  4  1  0
  4  5  1  0
  5  6  1  0
  6  7  1  0
  7  8  1  0
  8  9  1  0
  9 10  2  0
 10 11  1  0
 11 12  1  0
 11 13  2  0
 13 14  1  0
 14 15  2  0
  6 16  1  0
 16 17  1  0
 17 18  1  0
 18 19  1  0
 19 20  2  0
 19  2  1  0
 16  2  1  0
 15  5  1  0
 15  9  1  0
  1 21  1  0
  1 22  1  0
  1 23  1  0
  3 24  1  0
  3 25  1  0
  4 26  1  0
  4 27  1  0
  5 28  1  0
  6 29  1  0
  7 30  1  0
  7 31  1  0
  8 32  1  0
  8 33  1  0
 10 34  1  0
 12 35  1  0
 13 36  1  0
 14 37  1  0
 16 38  1  0
 17 39  1  0
 17 40  1  0
 18 41  1  0
 18 42  1  0
M  END
>  <Energy>  (2) 
45.83470769821941

>  <Real charge>  (2) 
0

>  <Mult>  (2) 
1

$$$$
mol_625 236
     RDKit          3D

 42 45  0  0  0  0  0  0  0  0999 V2000
   -2.6842   -0.9280    1.6651 C   0  0  0  0  0  0  0  0  0  0  0  0
   -2.4206    0.1538    0.6161 C   0  0  0  0  0  0  0  0  0  0  0  0
   -1.5826    1.3088    1.1819 C   0  0  0  0  0  0  0  0  0  0  0  0
   -0.0900    1.0030    1.2202 C   0  0  0  0  0  0  0  0  0  0  0  0
    0.4489    0.6354   -0.1734 C   0  0  0  0  0  0  0  0  0  0  0  0
   -0.3138   -0.5618   -0.7880 C   0  0  0  0  0  0  0  0  0  0  0  0
    0.1742   -1.8775   -0.1591 C   0  0  0  0  0  0  0  0  0  0  0  0
    1.6520   -2.1033   -0.4683 C   0  0  0  0  0  0  0  0  0  0  0  0
    2.5054   -0.8874   -0.2178 C   0  0  0  0  0  0  0  0  0  0  0  0
    3.8987   -1.0473   -0.1517 C   0  0  0  0  0  0  0  0  0  0  0  0
    4.7258    0.0545    0.0285 C   0  0  0  0  0  0  0  0  0  0  0  0
    6.0705   -0.1629    0.0895 O   0  0  0  0  0  0  0  0  0  0  0  0
    4.1930    1.3314    0.1361 C   0  0  0  0  0  0  0  0  0  0  0  0
    2.8099    1.5025    0.0621 C   0  0  0  0  0  0  0  0  0  0  0  0
    1.9510    0.4017   -0.1143 C   0  0  0  0  0  0  0  0  0  0  0  0
   -1.8489   -0.4223   -0.7034 C   0  0  0  0  0  0  0  0  0  0  0  0
   -2.3955    0.5299   -1.7815 C   0  0  0  0  0  0  0  0  0  0  0  0
   -3.8391    0.7797   -1.3725 C   0  0  0  0  0  0  0  0  0  0  0  0
   -3.7514    0.7256    0.1297 C   0  0  0  0  0  0  0  0  0  0  0  0
   -4.6552    1.1004    0.8675 O   0  0  0  0  0  0  0  0  0  0  0  0
   -3.3040   -1.7345    1.2568 H   0  0  0  0  0  0  0  0  0  0  0  0
   -1.7610   -1.3708    2.0447 H   0  0  0  0  0  0  0  0  0  0  0  0
   -3.2255   -0.5177    2.5257 H   0  0  0  0  0  0  0  0  0  0  0  0
   -1.7346    2.2189    0.5857 H   0  0  0  0  0  0  0  0  0  0  0  0
   -1.9259    1.5645    2.1926 H   0  0  0  0  0  0  0  0  0  0  0  0
    0.1111    0.2016    1.9412 H   0  0  0  0  0  0  0  0  0  0  0  0
    0.4305    1.8885    1.6064 H   0  0  0  0  0  0  0  0  0  0  0  0
    0.2879    1.4958   -0.8381 H   0  0  0  0  0  0  0  0  0  0  0  0
   -0.0511   -0.6157   -1.8556 H   0  0  0  0  0  0  0  0  0  0  0  0
    0.0363   -1.8691    0.9261 H   0  0  0  0  0  0  0  0  0  0  0  0
   -0.4015   -2.7272   -0.5448 H   0  0  0  0  0  0  0  0  0  0  0  0
    2.0129   -2.9440    0.1364 H   0  0  0  0  0  0  0  0  0  0  0  0
    1.7620   -2.3846   -1.5233 H   0  0  0  0  0  0  0  0  0  0  0  0
    4.3447   -2.0345   -0.2449 H   0  0  0  0  0  0  0  0  0  0  0  0
    6.5146    0.6903    0.2221 H   0  0  0  0  0  0  0  0  0  0  0  0
    4.8293    2.1992    0.2741 H   0  0  0  0  0  0  0  0  0  0  0  0
    2.3995    2.5070    0.1435 H   0  0  0  0  0  0  0  0  0  0  0  0
   -2.3023   -1.4054   -0.8989 H   0  0  0  0  0  0  0  0  0  0  0  0
   -2.3338    0.0930   -2.7835 H   0  0  0  0  0  0  0  0  0  0  0  0
   -1.8433    1.4766   -1.7986 H   0  0  0  0  0  0  0  0  0  0  0  0
   -4.4984   -0.0210   -1.7193 H   0  0  0  0  0  0  0  0  0  0  0  0
   -4.1959    1.7533   -1.7149 H   0  0  0  0  0  0  0  0  0  0  0  0
  1  2  1  0
  2  3  1  0
  3  4  1  0
  4  5  1  0
  5  6  1  0
  6  7  1  0
  7  8  1  0
  8  9  1  0
  9 10  2  0
 10 11  1  0
 11 12  1  0
 11 13  2  0
 13 14  1  0
 14 15  2  0
  6 16  1  0
 16 17  1  0
 17 18  1  0
 18 19  1  0
 19 20  2  0
 19  2  1  0
 16  2  1  0
 15  5  1  0
 15  9  1  0
  1 21  1  0
  1 22  1  0
  1 23  1  0
  3 24  1  0
  3 25  1  0
  4 26  1  0
  4 27  1  0
  5 28  1  0
  6 29  1  0
  7 30  1  0
  7 31  1  0
  8 32  1  0
  8 33  1  0
 10 34  1  0
 12 35  1  0
 13 36  1  0
 14 37  1  0
 16 38  1  0
 17 39  1  0
 17 40  1  0
 18 41  1  0
 18 42  1  0
M  END
>  <Energy>  (3) 
45.877062021406324

>  <Real charge>  (3) 
0

>  <Mult>  (3) 
1

$$$$
mol_625 129
     RDKit          3D

 42 45  0  0  0  0  0  0  0  0999 V2000
   -3.7806    0.8703   -1.0333 C   0  0  0  0  0  0  0  0  0  0  0  0
   -2.5041    0.6926   -0.1899 C   0  0  0  0  0  0  0  0  0  0  0  0
   -1.6269    1.9359   -0.3535 C   0  0  0  0  0  0  0  0  0  0  0  0
   -0.1988    1.7741    0.1545 C   0  0  0  0  0  0  0  0  0  0  0  0
    0.4774    0.5602   -0.5030 C   0  0  0  0  0  0  0  0  0  0  0  0
   -0.3029   -0.7035   -0.0663 C   0  0  0  0  0  0  0  0  0  0  0  0
    0.4040   -1.9439   -0.6323 C   0  0  0  0  0  0  0  0  0  0  0  0
    1.7824   -2.0904    0.0024 C   0  0  0  0  0  0  0  0  0  0  0  0
    2.5790   -0.8116   -0.0131 C   0  0  0  0  0  0  0  0  0  0  0  0
    3.9616   -0.8946    0.2257 C   0  0  0  0  0  0  0  0  0  0  0  0
    4.7466    0.2491    0.2175 C   0  0  0  0  0  0  0  0  0  0  0  0
    6.0823    0.1084    0.4496 O   0  0  0  0  0  0  0  0  0  0  0  0
    4.1800    1.4893   -0.0310 C   0  0  0  0  0  0  0  0  0  0  0  0
    2.8040    1.5827   -0.2581 C   0  0  0  0  0  0  0  0  0  0  0  0
    1.9744    0.4459   -0.2219 C   0  0  0  0  0  0  0  0  0  0  0  0
   -1.7944   -0.6526   -0.4971 C   0  0  0  0  0  0  0  0  0  0  0  0
   -2.6339   -1.6775    0.2931 C   0  0  0  0  0  0  0  0  0  0  0  0
   -2.9596   -0.9964    1.6199 C   0  0  0  0  0  0  0  0  0  0  0  0
   -2.9520    0.4655    1.2495 C   0  0  0  0  0  0  0  0  0  0  0  0
   -3.2858    1.3554    2.0222 O   0  0  0  0  0  0  0  0  0  0  0  0
   -3.5450    0.8801   -2.1031 H   0  0  0  0  0  0  0  0  0  0  0  0
   -4.2793    1.8162   -0.7900 H   0  0  0  0  0  0  0  0  0  0  0  0
   -4.5146    0.0768   -0.8584 H   0  0  0  0  0  0  0  0  0  0  0  0
   -1.5742    2.2016   -1.4182 H   0  0  0  0  0  0  0  0  0  0  0  0
   -2.0835    2.7960    0.1523 H   0  0  0  0  0  0  0  0  0  0  0  0
   -0.1911    1.6723    1.2472 H   0  0  0  0  0  0  0  0  0  0  0  0
    0.3302    2.7051   -0.0716 H   0  0  0  0  0  0  0  0  0  0  0  0
    0.3899    0.6624   -1.5949 H   0  0  0  0  0  0  0  0  0  0  0  0
   -0.2567   -0.7686    1.0306 H   0  0  0  0  0  0  0  0  0  0  0  0
   -0.1647   -2.8596   -0.4434 H   0  0  0  0  0  0  0  0  0  0  0  0
    0.5007   -1.8526   -1.7222 H   0  0  0  0  0  0  0  0  0  0  0  0
    2.3302   -2.8775   -0.5299 H   0  0  0  0  0  0  0  0  0  0  0  0
    1.6713   -2.4120    1.0456 H   0  0  0  0  0  0  0  0  0  0  0  0
    4.4313   -1.8573    0.4127 H   0  0  0  0  0  0  0  0  0  0  0  0
    6.4929    0.9880    0.4251 H   0  0  0  0  0  0  0  0  0  0  0  0
    4.7840    2.3904   -0.0584 H   0  0  0  0  0  0  0  0  0  0  0  0
    2.3956    2.5659   -0.4757 H   0  0  0  0  0  0  0  0  0  0  0  0
   -1.8515   -0.8727   -1.5710 H   0  0  0  0  0  0  0  0  0  0  0  0
   -3.5620   -1.8974   -0.2483 H   0  0  0  0  0  0  0  0  0  0  0  0
   -2.1334   -2.6356    0.4547 H   0  0  0  0  0  0  0  0  0  0  0  0
   -3.9386   -1.2997    1.9975 H   0  0  0  0  0  0  0  0  0  0  0  0
   -2.1843   -1.1806    2.3685 H   0  0  0  0  0  0  0  0  0  0  0  0
  1  2  1  0
  2  3  1  0
  3  4  1  0
  4  5  1  0
  5  6  1  0
  6  7  1  0
  7  8  1  0
  8  9  1  0
  9 10  2  0
 10 11  1  0
 11 12  1  0
 11 13  2  0
 13 14  1  0
 14 15  2  0
  6 16  1  0
 16 17  1  0
 17 18  1  0
 18 19  1  0
 19 20  2  0
 19  2  1  0
 16  2  1  0
 15  5  1  0
 15  9  1  0
  1 21  1  0
  1 22  1  0
  1 23  1  0
  3 24  1  0
  3 25  1  0
  4 26  1  0
  4 27  1  0
  5 28  1  0
  6 29  1  0
  7 30  1  0
  7 31  1  0
  8 32  1  0
  8 33  1  0
 10 34  1  0
 12 35  1  0
 13 36  1  0
 14 37  1  0
 16 38  1  0
 17 39  1  0
 17 40  1  0
 18 41  1  0
 18 42  1  0
M  END
>  <Energy>  (4) 
46.47786067568158

>  <Real charge>  (4) 
0

>  <Mult>  (4) 
1

$$$$
