mol_853 71
     RDKit          3D

 16 17  0  0  0  0  0  0  0  0999 V2000
   -3.1028   -1.4111    0.1416 O   0  0  0  0  0  0  0  0  0  0  0  0
   -2.0634   -0.7640    0.0817 C   0  0  0  0  0  0  0  0  0  0  0  0
   -2.0599    0.6117   -0.0165 N   0  0  0  0  0  0  0  0  0  0  0  0
   -0.9465    1.4230   -0.0891 C   0  0  0  0  0  0  0  0  0  0  0  0
   -0.9973    2.6430   -0.1755 O   0  0  0  0  0  0  0  0  0  0  0  0
    0.3170    0.6845   -0.0530 C   0  0  0  0  0  0  0  0  0  0  0  0
    1.6029    1.1368   -0.1023 N   0  0  0  0  0  0  0  0  0  0  0  0
    2.4567    0.0223   -0.0340 C   0  0  0  0  0  0  0  0  0  0  0  0
    3.6716    0.0119   -0.0493 O   0  0  0  0  0  0  0  0  0  0  0  0
    1.5935   -1.0920    0.0569 N   0  0  0  0  0  0  0  0  0  0  0  0
    0.3089   -0.6452    0.0420 C   0  0  0  0  0  0  0  0  0  0  0  0
   -0.8278   -1.3679    0.1085 N   0  0  0  0  0  0  0  0  0  0  0  0
   -2.9607    1.0657   -0.0370 H   0  0  0  0  0  0  0  0  0  0  0  0
    1.8962    2.0998   -0.1749 H   0  0  0  0  0  0  0  0  0  0  0  0
    1.9209   -2.0424    0.1204 H   0  0  0  0  0  0  0  0  0  0  0  0
   -0.8093   -2.3761    0.1803 H   0  0  0  0  0  0  0  0  0  0  0  0
  1  2  2  0
  2  3  1  0
  3  4  1  0
  4  5  2  0
  4  6  1  0
  6  7  1  0
  7  8  1  0
  8  9  2  0
  8 10  1  0
 10 11  1  0
 11 12  1  0
 11  6  2  0
 12  2  1  0
  3 13  1  0
  7 14  1  0
 10 15  1  0
 12 16  1  0
M  END
>  <Energy>  (1) 
-134.00493108414406

>  <Real charge>  (1) 
0

>  <Mult>  (1) 
1

$$$$
