mol_73 253
     RDKit          3D

 27 28  0  0  0  0  0  0  0  0999 V2000
    1.6428   -1.2834    0.2986 C   0  0  0  0  0  0  0  0  0  0  0  0
    0.7032   -0.0611    0.3469 C   0  0  0  0  0  0  0  0  0  0  0  0
    1.0196    0.6838    1.6584 C   0  0  0  0  0  0  0  0  0  0  0  0
    0.7611    0.8419   -0.9167 C   0  0  0  0  0  0  0  0  0  0  0  0
   -0.3877    1.8539   -0.6746 C   0  0  0  0  0  0  0  0  0  0  0  0
   -1.4707    0.9995    0.0216 C   0  0  0  0  0  0  0  0  0  0  0  0
   -0.7992   -0.3893    0.1257 C   0  0  0  0  0  0  0  0  0  0  0  0
   -1.4607   -1.3498    1.0842 C   0  0  0  0  0  0  0  0  0  0  0  0
   -0.7543   -0.8668   -1.3294 C   0  0  0  0  0  0  0  0  0  0  0  0
   -1.4724   -1.7185   -1.8296 O   0  0  0  0  0  0  0  0  0  0  0  0
    0.3152   -0.0895   -2.0709 C   0  0  0  0  0  0  0  0  0  0  0  0
    1.4411   -1.9684   -0.5294 H   0  0  0  0  0  0  0  0  0  0  0  0
    2.6858   -0.9596    0.2084 H   0  0  0  0  0  0  0  0  0  0  0  0
    1.5559   -1.8763    1.2164 H   0  0  0  0  0  0  0  0  0  0  0  0
    0.3865    1.5536    1.8469 H   0  0  0  0  0  0  0  0  0  0  0  0
    0.8993    0.0183    2.5209 H   0  0  0  0  0  0  0  0  0  0  0  0
    2.0569    1.0381    1.6536 H   0  0  0  0  0  0  0  0  0  0  0  0
    1.7233    1.3239   -1.1060 H   0  0  0  0  0  0  0  0  0  0  0  0
   -0.0663    2.6761   -0.0266 H   0  0  0  0  0  0  0  0  0  0  0  0
   -0.7580    2.2970   -1.6052 H   0  0  0  0  0  0  0  0  0  0  0  0
   -2.3899    0.9737   -0.5751 H   0  0  0  0  0  0  0  0  0  0  0  0
   -1.7215    1.4145    1.0036 H   0  0  0  0  0  0  0  0  0  0  0  0
   -1.4225   -0.9771    2.1125 H   0  0  0  0  0  0  0  0  0  0  0  0
   -2.5137   -1.5002    0.8215 H   0  0  0  0  0  0  0  0  0  0  0  0
   -0.9798   -2.3332    1.0599 H   0  0  0  0  0  0  0  0  0  0  0  0
   -0.1085    0.4565   -2.9168 H   0  0  0  0  0  0  0  0  0  0  0  0
    1.1145   -0.7575   -2.3988 H   0  0  0  0  0  0  0  0  0  0  0  0
  1  2  1  0
  2  3  1  0
  2  4  1  0
  4  5  1  0
  5  6  1  0
  6  7  1  0
  7  8  1  0
  7  9  1  0
  9 10  2  0
  9 11  1  0
  7  2  1  0
 11  4  1  0
  1 12  1  0
  1 13  1  0
  1 14  1  0
  3 15  1  0
  3 16  1  0
  3 17  1  0
  4 18  1  0
  5 19  1  0
  5 20  1  0
  6 21  1  0
  6 22  1  0
  8 23  1  0
  8 24  1  0
  8 25  1  0
 11 26  1  0
 11 27  1  0
M  END
>  <Energy>  (1) 
45.55602323860649

>  <Real charge>  (1) 
0

>  <Mult>  (1) 
1

$$$$
