mol_249 84
     RDKit          3D

 35 38  0  0  0  0  0  0  0  0999 V2000
   -3.7537   -0.5628    1.7871 C   0  0  0  0  0  0  0  0  0  0  0  0
   -3.1315   -1.3253    0.6792 C   0  0  0  0  0  0  0  0  0  0  0  0
   -3.4243   -2.5759    0.3842 N   0  0  0  0  0  0  0  0  0  0  0  0
   -2.5546   -3.0054   -0.5784 N   0  0  0  0  0  0  0  0  0  0  0  0
   -1.7432   -2.0099   -0.8633 C   0  0  0  0  0  0  0  0  0  0  0  0
   -0.6689   -1.9938   -1.8799 C   0  0  0  0  0  0  0  0  0  0  0  0
    0.6160   -1.6993   -1.2591 N   0  0  0  0  0  0  0  0  0  0  0  0
    0.8129   -0.5605   -0.6870 C   0  0  0  0  0  0  0  0  0  0  0  0
    2.1510   -0.3612   -0.0537 C   0  0  0  0  0  0  0  0  0  0  0  0
    3.2786   -0.5863   -0.8579 C   0  0  0  0  0  0  0  0  0  0  0  0
    4.5600   -0.4025   -0.3378 C   0  0  0  0  0  0  0  0  0  0  0  0
    4.7222   -0.0052    0.9880 C   0  0  0  0  0  0  0  0  0  0  0  0
    3.6039    0.1969    1.7998 C   0  0  0  0  0  0  0  0  0  0  0  0
    2.3155    0.0137    1.2867 C   0  0  0  0  0  0  0  0  0  0  0  0
    0.9897    0.2211    2.3753 Cl  0  0  0  0  0  0  0  0  0  0  0  0
   -0.1728    0.5673   -0.6330 C   0  0  0  0  0  0  0  0  0  0  0  0
    0.3265    1.8630   -0.8560 C   0  0  0  0  0  0  0  0  0  0  0  0
   -0.5036    2.9709   -0.7089 C   0  0  0  0  0  0  0  0  0  0  0  0
    0.1234    4.5493   -0.9771 Cl  0  0  0  0  0  0  0  0  0  0  0  0
   -1.8358    2.8089   -0.3467 C   0  0  0  0  0  0  0  0  0  0  0  0
   -2.3503    1.5268   -0.1387 C   0  0  0  0  0  0  0  0  0  0  0  0
   -1.5278    0.3968   -0.2835 C   0  0  0  0  0  0  0  0  0  0  0  0
   -2.0921   -0.8956   -0.1312 N   0  0  0  0  0  0  0  0  0  0  0  0
   -4.5980    0.0298    1.4237 H   0  0  0  0  0  0  0  0  0  0  0  0
   -3.0352    0.0952    2.2844 H   0  0  0  0  0  0  0  0  0  0  0  0
   -4.1388   -1.2529    2.5455 H   0  0  0  0  0  0  0  0  0  0  0  0
   -0.8910   -1.2863   -2.6879 H   0  0  0  0  0  0  0  0  0  0  0  0
   -0.6022   -2.9818   -2.3492 H   0  0  0  0  0  0  0  0  0  0  0  0
    3.1586   -0.9092   -1.8903 H   0  0  0  0  0  0  0  0  0  0  0  0
    5.4312   -0.5778   -0.9651 H   0  0  0  0  0  0  0  0  0  0  0  0
    5.7214    0.1321    1.3959 H   0  0  0  0  0  0  0  0  0  0  0  0
    3.7463    0.4847    2.8391 H   0  0  0  0  0  0  0  0  0  0  0  0
    1.3650    2.0181   -1.1398 H   0  0  0  0  0  0  0  0  0  0  0  0
   -2.4865    3.6746   -0.2429 H   0  0  0  0  0  0  0  0  0  0  0  0
   -3.4117    1.4425    0.0787 H   0  0  0  0  0  0  0  0  0  0  0  0
  1  2  1  0
  2  3  2  0
  3  4  1  0
  4  5  2  0
  5  6  1  0
  6  7  1  0
  7  8  2  0
  8  9  1  0
  9 10  2  0
 10 11  1  0
 11 12  2  0
 12 13  1  0
 13 14  2  0
 14 15  1  0
  8 16  1  0
 16 17  2  0
 17 18  1  0
 18 19  1  0
 18 20  2  0
 20 21  1  0
 21 22  2  0
 22 23  1  0
 14  9  1  0
 22 16  1  0
 23  2  1  0
 23  5  1  0
  1 24  1  0
  1 25  1  0
  1 26  1  0
  6 27  1  0
  6 28  1  0
 10 29  1  0
 11 30  1  0
 12 31  1  0
 13 32  1  0
 17 33  1  0
 20 34  1  0
 21 35  1  0
M  END
>  <Energy>  (1) 
92.62796349161766

>  <Real charge>  (1) 
0

>  <Mult>  (1) 
1

$$$$
