mol_163 174
     RDKit          3D

 19 18  0  0  0  0  0  0  0  0999 V2000
   -3.0063    0.1669   -0.2868 C   0  0  0  0  0  0  0  0  0  0  0  0
   -1.6986   -0.3055    0.3282 C   0  0  0  0  0  0  0  0  0  0  0  0
   -0.4918    0.2274   -0.4437 C   0  0  0  0  0  0  0  0  0  0  0  0
    0.8211   -0.2499    0.1778 C   0  0  0  0  0  0  0  0  0  0  0  0
    2.0255    0.2819   -0.5924 C   0  0  0  0  0  0  0  0  0  0  0  0
    3.3387   -0.1726   -0.0024 C   0  0  0  0  0  0  0  0  0  0  0  0
    3.4504   -0.8899    0.9859 O   0  0  0  0  0  0  0  0  0  0  0  0
   -3.0701    1.2597   -0.2815 H   0  0  0  0  0  0  0  0  0  0  0  0
   -3.8558   -0.2257    0.2807 H   0  0  0  0  0  0  0  0  0  0  0  0
   -3.1004   -0.1780   -1.3215 H   0  0  0  0  0  0  0  0  0  0  0  0
   -1.6506    0.0282    1.3713 H   0  0  0  0  0  0  0  0  0  0  0  0
   -1.6808   -1.4016    0.3370 H   0  0  0  0  0  0  0  0  0  0  0  0
   -0.5167    1.3239   -0.4530 H   0  0  0  0  0  0  0  0  0  0  0  0
   -0.5469   -0.1058   -1.4873 H   0  0  0  0  0  0  0  0  0  0  0  0
    0.8767    0.0793    1.2229 H   0  0  0  0  0  0  0  0  0  0  0  0
    0.8466   -1.3467    0.1915 H   0  0  0  0  0  0  0  0  0  0  0  0
    1.9962   -0.0602   -1.6325 H   0  0  0  0  0  0  0  0  0  0  0  0
    2.0265    1.3772   -0.5927 H   0  0  0  0  0  0  0  0  0  0  0  0
    4.2363    0.1914   -0.5318 H   0  0  0  0  0  0  0  0  0  0  0  0
  1  2  1  0
  2  3  1  0
  3  4  1  0
  4  5  1  0
  5  6  1  0
  6  7  2  0
  1  8  1  0
  1  9  1  0
  1 10  1  0
  2 11  1  0
  2 12  1  0
  3 13  1  0
  3 14  1  0
  4 15  1  0
  4 16  1  0
  5 17  1  0
  5 18  1  0
  6 19  1  0
M  END
>  <Energy>  (1) 
-2.109869620519546

>  <Real charge>  (1) 
0

>  <Mult>  (1) 
1

$$$$
mol_163 77
     RDKit          3D

 19 18  0  0  0  0  0  0  0  0999 V2000
    2.7918    0.4473    0.4877 C   0  0  0  0  0  0  0  0  0  0  0  0
    1.6571    0.0961   -0.4613 C   0  0  0  0  0  0  0  0  0  0  0  0
    0.3406   -0.1054    0.2897 C   0  0  0  0  0  0  0  0  0  0  0  0
   -0.7973   -0.4628   -0.6716 C   0  0  0  0  0  0  0  0  0  0  0  0
   -2.1215   -0.6923    0.0520 C   0  0  0  0  0  0  0  0  0  0  0  0
   -2.7884    0.5766    0.5297 C   0  0  0  0  0  0  0  0  0  0  0  0
   -2.3833    1.7113    0.3024 O   0  0  0  0  0  0  0  0  0  0  0  0
    2.5779    1.3746    1.0288 H   0  0  0  0  0  0  0  0  0  0  0  0
    2.9511   -0.3498    1.2209 H   0  0  0  0  0  0  0  0  0  0  0  0
    3.7231    0.5867   -0.0702 H   0  0  0  0  0  0  0  0  0  0  0  0
    1.5451    0.8981   -1.2002 H   0  0  0  0  0  0  0  0  0  0  0  0
    1.9169   -0.8169   -1.0098 H   0  0  0  0  0  0  0  0  0  0  0  0
    0.4602   -0.9068    1.0291 H   0  0  0  0  0  0  0  0  0  0  0  0
    0.0947    0.8081    0.8431 H   0  0  0  0  0  0  0  0  0  0  0  0
   -0.5308   -1.3828   -1.2063 H   0  0  0  0  0  0  0  0  0  0  0  0
   -0.9087    0.3247   -1.4267 H   0  0  0  0  0  0  0  0  0  0  0  0
   -2.8284   -1.1791   -0.6292 H   0  0  0  0  0  0  0  0  0  0  0  0
   -1.9830   -1.3501    0.9165 H   0  0  0  0  0  0  0  0  0  0  0  0
   -3.7171    0.4224    1.1060 H   0  0  0  0  0  0  0  0  0  0  0  0
  1  2  1  0
  2  3  1  0
  3  4  1  0
  4  5  1  0
  5  6  1  0
  6  7  2  0
  1  8  1  0
  1  9  1  0
  1 10  1  0
  2 11  1  0
  2 12  1  0
  3 13  1  0
  3 14  1  0
  4 15  1  0
  4 16  1  0
  5 17  1  0
  5 18  1  0
  6 19  1  0
M  END
>  <Energy>  (2) 
-2.0002145546754457

>  <Real charge>  (2) 
0

>  <Mult>  (2) 
1

$$$$
mol_163 46
     RDKit          3D

 19 18  0  0  0  0  0  0  0  0999 V2000
   -2.7984    0.1525   -0.4268 C   0  0  0  0  0  0  0  0  0  0  0  0
   -1.5343   -0.6892   -0.3554 C   0  0  0  0  0  0  0  0  0  0  0  0
   -0.3558    0.1152    0.1937 C   0  0  0  0  0  0  0  0  0  0  0  0
    0.9141   -0.7380    0.2641 C   0  0  0  0  0  0  0  0  0  0  0  0
    2.0972    0.0288    0.8466 C   0  0  0  0  0  0  0  0  0  0  0  0
    2.5931    1.0828   -0.1085 C   0  0  0  0  0  0  0  0  0  0  0  0
    2.7468    2.2585    0.2069 O   0  0  0  0  0  0  0  0  0  0  0  0
   -3.0837    0.5168    0.5653 H   0  0  0  0  0  0  0  0  0  0  0  0
   -3.6280   -0.4422   -0.8218 H   0  0  0  0  0  0  0  0  0  0  0  0
   -2.6575    1.0172   -1.0832 H   0  0  0  0  0  0  0  0  0  0  0  0
   -1.2947   -1.0638   -1.3574 H   0  0  0  0  0  0  0  0  0  0  0  0
   -1.7192   -1.5618    0.2818 H   0  0  0  0  0  0  0  0  0  0  0  0
   -0.6023    0.4896    1.1948 H   0  0  0  0  0  0  0  0  0  0  0  0
   -0.1838    0.9898   -0.4449 H   0  0  0  0  0  0  0  0  0  0  0  0
    1.1633   -1.1089   -0.7377 H   0  0  0  0  0  0  0  0  0  0  0  0
    0.7224   -1.6152    0.8940 H   0  0  0  0  0  0  0  0  0  0  0  0
    1.8330    0.4975    1.8003 H   0  0  0  0  0  0  0  0  0  0  0  0
    2.9301   -0.6595    1.0264 H   0  0  0  0  0  0  0  0  0  0  0  0
    2.8580    0.7301   -1.1200 H   0  0  0  0  0  0  0  0  0  0  0  0
  1  2  1  0
  2  3  1  0
  3  4  1  0
  4  5  1  0
  5  6  1  0
  6  7  2  0
  1  8  1  0
  1  9  1  0
  1 10  1  0
  2 11  1  0
  2 12  1  0
  3 13  1  0
  3 14  1  0
  4 15  1  0
  4 16  1  0
  5 17  1  0
  5 18  1  0
  6 19  1  0
M  END
>  <Energy>  (3) 
-1.7846646847165046

>  <Real charge>  (3) 
0

>  <Mult>  (3) 
1

$$$$
mol_163 123
     RDKit          3D

 19 18  0  0  0  0  0  0  0  0999 V2000
   -2.9717   -0.2420    0.3567 C   0  0  0  0  0  0  0  0  0  0  0  0
   -1.6784   -0.4865   -0.4042 C   0  0  0  0  0  0  0  0  0  0  0  0
   -0.4814    0.1411    0.3096 C   0  0  0  0  0  0  0  0  0  0  0  0
    0.8170   -0.1070   -0.4583 C   0  0  0  0  0  0  0  0  0  0  0  0
    2.0110    0.5191    0.2533 C   0  0  0  0  0  0  0  0  0  0  0  0
    3.2746    0.2524   -0.5203 C   0  0  0  0  0  0  0  0  0  0  0  0
    4.2774   -0.2484   -0.0211 O   0  0  0  0  0  0  0  0  0  0  0  0
   -2.9243   -0.6757    1.3607 H   0  0  0  0  0  0  0  0  0  0  0  0
   -3.1729    0.8296    0.4542 H   0  0  0  0  0  0  0  0  0  0  0  0
   -3.8144   -0.6992   -0.1714 H   0  0  0  0  0  0  0  0  0  0  0  0
   -1.7708   -0.0694   -1.4137 H   0  0  0  0  0  0  0  0  0  0  0  0
   -1.5235   -1.5664   -0.5122 H   0  0  0  0  0  0  0  0  0  0  0  0
   -0.6431    1.2204    0.4187 H   0  0  0  0  0  0  0  0  0  0  0  0
   -0.3961   -0.2765    1.3203 H   0  0  0  0  0  0  0  0  0  0  0  0
    0.7327    0.3047   -1.4719 H   0  0  0  0  0  0  0  0  0  0  0  0
    0.9813   -1.1859   -0.5726 H   0  0  0  0  0  0  0  0  0  0  0  0
    2.1210    0.1080    1.2624 H   0  0  0  0  0  0  0  0  0  0  0  0
    1.8900    1.6043    0.3338 H   0  0  0  0  0  0  0  0  0  0  0  0
    3.2716    0.5774   -1.5749 H   0  0  0  0  0  0  0  0  0  0  0  0
  1  2  1  0
  2  3  1  0
  3  4  1  0
  4  5  1  0
  5  6  1  0
  6  7  2  0
  1  8  1  0
  1  9  1  0
  1 10  1  0
  2 11  1  0
  2 12  1  0
  3 13  1  0
  3 14  1  0
  4 15  1  0
  4 16  1  0
  5 17  1  0
  5 18  1  0
  6 19  1  0
M  END
>  <Energy>  (4) 
-1.5946892877899776

>  <Real charge>  (4) 
0

>  <Mult>  (4) 
1

$$$$
mol_163 33
     RDKit          3D

 19 18  0  0  0  0  0  0  0  0999 V2000
   -2.6546    0.5366    1.2231 C   0  0  0  0  0  0  0  0  0  0  0  0
   -1.7036   -0.3193    0.4017 C   0  0  0  0  0  0  0  0  0  0  0  0
   -0.2454    0.0717    0.6452 C   0  0  0  0  0  0  0  0  0  0  0  0
    0.7068   -0.7945   -0.1848 C   0  0  0  0  0  0  0  0  0  0  0  0
    2.1759   -0.4752    0.0755 C   0  0  0  0  0  0  0  0  0  0  0  0
    2.5924    0.8122   -0.5876 C   0  0  0  0  0  0  0  0  0  0  0  0
    3.4747    0.8767   -1.4382 O   0  0  0  0  0  0  0  0  0  0  0  0
   -2.4589    0.4231    2.2941 H   0  0  0  0  0  0  0  0  0  0  0  0
   -3.6910    0.2400    1.0339 H   0  0  0  0  0  0  0  0  0  0  0  0
   -2.5519    1.5955    0.9650 H   0  0  0  0  0  0  0  0  0  0  0  0
   -1.8551   -1.3737    0.6603 H   0  0  0  0  0  0  0  0  0  0  0  0
   -1.9464   -0.2075   -0.6615 H   0  0  0  0  0  0  0  0  0  0  0  0
   -0.0094   -0.0402    1.7104 H   0  0  0  0  0  0  0  0  0  0  0  0
   -0.1083    1.1293    0.3929 H   0  0  0  0  0  0  0  0  0  0  0  0
    0.4800   -0.6733   -1.2511 H   0  0  0  0  0  0  0  0  0  0  0  0
    0.5327   -1.8485    0.0642 H   0  0  0  0  0  0  0  0  0  0  0  0
    2.3864   -0.3985    1.1470 H   0  0  0  0  0  0  0  0  0  0  0  0
    2.8003   -1.2785   -0.3320 H   0  0  0  0  0  0  0  0  0  0  0  0
    2.0755    1.7240   -0.2450 H   0  0  0  0  0  0  0  0  0  0  0  0
  1  2  1  0
  2  3  1  0
  3  4  1  0
  4  5  1  0
  5  6  1  0
  6  7  2  0
  1  8  1  0
  1  9  1  0
  1 10  1  0
  2 11  1  0
  2 12  1  0
  3 13  1  0
  3 14  1  0
  4 15  1  0
  4 16  1  0
  5 17  1  0
  5 18  1  0
  6 19  1  0
M  END
>  <Energy>  (5) 
-1.3320117869400965

>  <Real charge>  (5) 
0

>  <Mult>  (5) 
1

$$$$
mol_163 94
     RDKit          3D

 19 18  0  0  0  0  0  0  0  0999 V2000
    2.4153    0.5695    0.9431 C   0  0  0  0  0  0  0  0  0  0  0  0
    1.9007   -0.2325   -0.2422 C   0  0  0  0  0  0  0  0  0  0  0  0
    0.5144   -0.8389   -0.0144 C   0  0  0  0  0  0  0  0  0  0  0  0
   -0.5905    0.2097    0.1263 C   0  0  0  0  0  0  0  0  0  0  0  0
   -1.9632   -0.4465    0.2442 C   0  0  0  0  0  0  0  0  0  0  0  0
   -3.0783    0.5612    0.3877 C   0  0  0  0  0  0  0  0  0  0  0  0
   -2.9234    1.7775    0.4072 O   0  0  0  0  0  0  0  0  0  0  0  0
    2.4083   -0.0319    1.8576 H   0  0  0  0  0  0  0  0  0  0  0  0
    3.4448    0.8931    0.7586 H   0  0  0  0  0  0  0  0  0  0  0  0
    1.8126    1.4663    1.1131 H   0  0  0  0  0  0  0  0  0  0  0  0
    1.8879    0.4034   -1.1351 H   0  0  0  0  0  0  0  0  0  0  0  0
    2.6066   -1.0471   -0.4437 H   0  0  0  0  0  0  0  0  0  0  0  0
    0.5345   -1.4774    0.8773 H   0  0  0  0  0  0  0  0  0  0  0  0
    0.2826   -1.4917   -0.8651 H   0  0  0  0  0  0  0  0  0  0  0  0
   -0.4114    0.8312    1.0113 H   0  0  0  0  0  0  0  0  0  0  0  0
   -0.5762    0.8812   -0.7411 H   0  0  0  0  0  0  0  0  0  0  0  0
   -2.1775   -1.0493   -0.6449 H   0  0  0  0  0  0  0  0  0  0  0  0
   -1.9989   -1.1038    1.1198 H   0  0  0  0  0  0  0  0  0  0  0  0
   -4.0886    0.1260    0.4779 H   0  0  0  0  0  0  0  0  0  0  0  0
  1  2  1  0
  2  3  1  0
  3  4  1  0
  4  5  1  0
  5  6  1  0
  6  7  2  0
  1  8  1  0
  1  9  1  0
  1 10  1  0
  2 11  1  0
  2 12  1  0
  3 13  1  0
  3 14  1  0
  4 15  1  0
  4 16  1  0
  5 17  1  0
  5 18  1  0
  6 19  1  0
M  END
>  <Energy>  (6) 
-1.2864935681685479

>  <Real charge>  (6) 
0

>  <Mult>  (6) 
1

$$$$
mol_163 130
     RDKit          3D

 19 18  0  0  0  0  0  0  0  0999 V2000
    2.8119   -0.2904   -0.5634 C   0  0  0  0  0  0  0  0  0  0  0  0
    1.3121   -0.1370   -0.7657 C   0  0  0  0  0  0  0  0  0  0  0  0
    0.6445    0.4815    0.4632 C   0  0  0  0  0  0  0  0  0  0  0  0
   -0.8485    0.7577    0.2687 C   0  0  0  0  0  0  0  0  0  0  0  0
   -1.6812   -0.5090    0.0935 C   0  0  0  0  0  0  0  0  0  0  0  0
   -3.1630   -0.2234    0.0319 C   0  0  0  0  0  0  0  0  0  0  0  0
   -3.6628    0.8954    0.0815 O   0  0  0  0  0  0  0  0  0  0  0  0
    3.2702   -0.7372   -1.4513 H   0  0  0  0  0  0  0  0  0  0  0  0
    3.2861    0.6808   -0.3892 H   0  0  0  0  0  0  0  0  0  0  0  0
    3.0279   -0.9374    0.2928 H   0  0  0  0  0  0  0  0  0  0  0  0
    0.8847   -1.1232   -0.9756 H   0  0  0  0  0  0  0  0  0  0  0  0
    1.1307    0.4920   -1.6448 H   0  0  0  0  0  0  0  0  0  0  0  0
    1.1399    1.4314    0.6999 H   0  0  0  0  0  0  0  0  0  0  0  0
    0.7873   -0.1732    1.3317 H   0  0  0  0  0  0  0  0  0  0  0  0
   -0.9933    1.4201   -0.5939 H   0  0  0  0  0  0  0  0  0  0  0  0
   -1.2120    1.3102    1.1445 H   0  0  0  0  0  0  0  0  0  0  0  0
   -1.5147   -1.1943    0.9315 H   0  0  0  0  0  0  0  0  0  0  0  0
   -1.4161   -1.0277   -0.8330 H   0  0  0  0  0  0  0  0  0  0  0  0
   -3.8038   -1.1162   -0.0706 H   0  0  0  0  0  0  0  0  0  0  0  0
  1  2  1  0
  2  3  1  0
  3  4  1  0
  4  5  1  0
  5  6  1  0
  6  7  2  0
  1  8  1  0
  1  9  1  0
  1 10  1  0
  2 11  1  0
  2 12  1  0
  3 13  1  0
  3 14  1  0
  4 15  1  0
  4 16  1  0
  5 17  1  0
  5 18  1  0
  6 19  1  0
M  END
>  <Energy>  (7) 
-1.2724724751764813

>  <Real charge>  (7) 
0

>  <Mult>  (7) 
1

$$$$
mol_163 176
     RDKit          3D

 19 18  0  0  0  0  0  0  0  0999 V2000
   -2.3903    0.5143    0.3077 C   0  0  0  0  0  0  0  0  0  0  0  0
   -1.7358   -0.1547   -0.8911 C   0  0  0  0  0  0  0  0  0  0  0  0
   -0.2159    0.0217   -0.9339 C   0  0  0  0  0  0  0  0  0  0  0  0
    0.5078   -0.6899    0.2144 C   0  0  0  0  0  0  0  0  0  0  0  0
    2.0271   -0.6053    0.0846 C   0  0  0  0  0  0  0  0  0  0  0  0
    2.5971    0.7533    0.4202 C   0  0  0  0  0  0  0  0  0  0  0  0
    1.9475    1.7015    0.8471 O   0  0  0  0  0  0  0  0  0  0  0  0
   -2.0916    0.0383    1.2460 H   0  0  0  0  0  0  0  0  0  0  0  0
   -3.4798    0.4388    0.2309 H   0  0  0  0  0  0  0  0  0  0  0  0
   -2.1272    1.5756    0.3579 H   0  0  0  0  0  0  0  0  0  0  0  0
   -1.9890   -1.2212   -0.8978 H   0  0  0  0  0  0  0  0  0  0  0  0
   -2.1607    0.2772   -1.8051 H   0  0  0  0  0  0  0  0  0  0  0  0
    0.1471   -0.3803   -1.8880 H   0  0  0  0  0  0  0  0  0  0  0  0
    0.0252    1.0909   -0.9316 H   0  0  0  0  0  0  0  0  0  0  0  0
    0.1953   -0.2741    1.1786 H   0  0  0  0  0  0  0  0  0  0  0  0
    0.2187   -1.7480    0.2116 H   0  0  0  0  0  0  0  0  0  0  0  0
    2.4912   -1.3182    0.7753 H   0  0  0  0  0  0  0  0  0  0  0  0
    2.3462   -0.8669   -0.9298 H   0  0  0  0  0  0  0  0  0  0  0  0
    3.6871    0.8468    0.2733 H   0  0  0  0  0  0  0  0  0  0  0  0
  1  2  1  0
  2  3  1  0
  3  4  1  0
  4  5  1  0
  5  6  1  0
  6  7  2  0
  1  8  1  0
  1  9  1  0
  1 10  1  0
  2 11  1  0
  2 12  1  0
  3 13  1  0
  3 14  1  0
  4 15  1  0
  4 16  1  0
  5 17  1  0
  5 18  1  0
  6 19  1  0
M  END
>  <Energy>  (8) 
-1.2025724129741482

>  <Real charge>  (8) 
0

>  <Mult>  (8) 
1

$$$$
mol_163 62
     RDKit          3D

 19 18  0  0  0  0  0  0  0  0999 V2000
   -2.6033    0.2473    0.0495 C   0  0  0  0  0  0  0  0  0  0  0  0
   -1.6223   -0.8296   -0.3876 C   0  0  0  0  0  0  0  0  0  0  0  0
   -0.2448   -0.2841   -0.7720 C   0  0  0  0  0  0  0  0  0  0  0  0
    0.5083    0.3433    0.4063 C   0  0  0  0  0  0  0  0  0  0  0  0
    1.9167    0.7914    0.0220 C   0  0  0  0  0  0  0  0  0  0  0  0
    2.9047   -0.3430   -0.1212 C   0  0  0  0  0  0  0  0  0  0  0  0
    2.6624   -1.5201    0.1220 O   0  0  0  0  0  0  0  0  0  0  0  0
   -3.5927   -0.1912    0.2145 H   0  0  0  0  0  0  0  0  0  0  0  0
   -2.2908    0.7188    0.9857 H   0  0  0  0  0  0  0  0  0  0  0  0
   -2.7006    1.0243   -0.7152 H   0  0  0  0  0  0  0  0  0  0  0  0
   -2.0429   -1.3513   -1.2556 H   0  0  0  0  0  0  0  0  0  0  0  0
   -1.5191   -1.5746    0.4099 H   0  0  0  0  0  0  0  0  0  0  0  0
    0.3426   -1.1113   -1.1871 H   0  0  0  0  0  0  0  0  0  0  0  0
   -0.3548    0.4558   -1.5743 H   0  0  0  0  0  0  0  0  0  0  0  0
    0.5500   -0.3647    1.2426 H   0  0  0  0  0  0  0  0  0  0  0  0
   -0.0418    1.2239    0.7571 H   0  0  0  0  0  0  0  0  0  0  0  0
    1.9030    1.3520   -0.9186 H   0  0  0  0  0  0  0  0  0  0  0  0
    2.3128    1.4529    0.8006 H   0  0  0  0  0  0  0  0  0  0  0  0
    3.9125   -0.0396   -0.4540 H   0  0  0  0  0  0  0  0  0  0  0  0
  1  2  1  0
  2  3  1  0
  3  4  1  0
  4  5  1  0
  5  6  1  0
  6  7  2  0
  1  8  1  0
  1  9  1  0
  1 10  1  0
  2 11  1  0
  2 12  1  0
  3 13  1  0
  3 14  1  0
  4 15  1  0
  4 16  1  0
  5 17  1  0
  5 18  1  0
  6 19  1  0
M  END
>  <Energy>  (9) 
-1.1304140815363302

>  <Real charge>  (9) 
0

>  <Mult>  (9) 
1

$$$$
