mol_1064 39
     RDKit          3D

 23 22  0  0  0  0  0  0  0  0999 V2000
   -2.1151    0.7495    0.1172 C   0  0  0  0  0  0  0  0  0  0  0  0
   -1.1672   -0.1064   -0.7143 C   0  0  0  0  0  0  0  0  0  0  0  0
    0.1581   -0.5171   -0.0169 C   0  0  0  0  0  0  0  0  0  0  0  0
    0.9871   -1.3472   -1.0201 C   0  0  0  0  0  0  0  0  0  0  0  0
   -0.1414   -1.4198    1.1989 C   0  0  0  0  0  0  0  0  0  0  0  0
    0.9862    0.6984    0.4809 C   0  0  0  0  0  0  0  0  0  0  0  0
    1.3587    1.7255   -0.5816 C   0  0  0  0  0  0  0  0  0  0  0  0
   -2.4334    0.2334    1.0271 H   0  0  0  0  0  0  0  0  0  0  0  0
   -1.6601    1.7034    0.3972 H   0  0  0  0  0  0  0  0  0  0  0  0
   -3.0157    0.9742   -0.4642 H   0  0  0  0  0  0  0  0  0  0  0  0
   -0.9461    0.4312   -1.6448 H   0  0  0  0  0  0  0  0  0  0  0  0
   -1.7089   -1.0123   -1.0177 H   0  0  0  0  0  0  0  0  0  0  0  0
    1.9564   -1.6308   -0.5949 H   0  0  0  0  0  0  0  0  0  0  0  0
    1.1756   -0.7945   -1.9463 H   0  0  0  0  0  0  0  0  0  0  0  0
    0.4633   -2.2703   -1.2945 H   0  0  0  0  0  0  0  0  0  0  0  0
   -0.6656   -0.8742    1.9903 H   0  0  0  0  0  0  0  0  0  0  0  0
    0.7846   -1.8126    1.6347 H   0  0  0  0  0  0  0  0  0  0  0  0
   -0.7621   -2.2766    0.9136 H   0  0  0  0  0  0  0  0  0  0  0  0
    1.9157    0.3357    0.9400 H   0  0  0  0  0  0  0  0  0  0  0  0
    0.4430    1.2148    1.2820 H   0  0  0  0  0  0  0  0  0  0  0  0
    1.9442    2.5316   -0.1267 H   0  0  0  0  0  0  0  0  0  0  0  0
    0.4732    2.1798   -1.0345 H   0  0  0  0  0  0  0  0  0  0  0  0
    1.9695    1.2845   -1.3741 H   0  0  0  0  0  0  0  0  0  0  0  0
  1  2  1  0
  2  3  1  0
  3  4  1  0
  3  5  1  0
  3  6  1  0
  6  7  1  0
  1  8  1  0
  1  9  1  0
  1 10  1  0
  2 11  1  0
  2 12  1  0
  4 13  1  0
  4 14  1  0
  4 15  1  0
  5 16  1  0
  5 17  1  0
  5 18  1  0
  6 19  1  0
  6 20  1  0
  7 21  1  0
  7 22  1  0
  7 23  1  0
M  END
>  <Energy>  (1) 
11.779374152350607

>  <Real charge>  (1) 
0

>  <Mult>  (1) 
1

$$$$
mol_1064 224
     RDKit          3D

 23 22  0  0  0  0  0  0  0  0999 V2000
   -2.3159   -0.6619    0.3758 C   0  0  0  0  0  0  0  0  0  0  0  0
   -0.8491   -0.9370    0.0614 C   0  0  0  0  0  0  0  0  0  0  0  0
    0.0381    0.3139   -0.1866 C   0  0  0  0  0  0  0  0  0  0  0  0
    0.1215    1.1808    1.0837 C   0  0  0  0  0  0  0  0  0  0  0  0
   -0.5496    1.1760   -1.3239 C   0  0  0  0  0  0  0  0  0  0  0  0
    1.4648   -0.1250   -0.6307 C   0  0  0  0  0  0  0  0  0  0  0  0
    2.2478   -0.9683    0.3689 C   0  0  0  0  0  0  0  0  0  0  0  0
   -2.8351   -1.6068    0.5690 H   0  0  0  0  0  0  0  0  0  0  0  0
   -2.8251   -0.1770   -0.4616 H   0  0  0  0  0  0  0  0  0  0  0  0
   -2.4291   -0.0369    1.2658 H   0  0  0  0  0  0  0  0  0  0  0  0
   -0.4408   -1.5185    0.8966 H   0  0  0  0  0  0  0  0  0  0  0  0
   -0.8080   -1.5902   -0.8198 H   0  0  0  0  0  0  0  0  0  0  0  0
   -0.8405    1.6502    1.3157 H   0  0  0  0  0  0  0  0  0  0  0  0
    0.8531    1.9877    0.9618 H   0  0  0  0  0  0  0  0  0  0  0  0
    0.4157    0.5897    1.9572 H   0  0  0  0  0  0  0  0  0  0  0  0
   -1.5171    1.6093   -1.0501 H   0  0  0  0  0  0  0  0  0  0  0  0
   -0.6906    0.5838   -2.2350 H   0  0  0  0  0  0  0  0  0  0  0  0
    0.1164    2.0114   -1.5695 H   0  0  0  0  0  0  0  0  0  0  0  0
    1.3932   -0.6892   -1.5699 H   0  0  0  0  0  0  0  0  0  0  0  0
    2.0633    0.7673   -0.8576 H   0  0  0  0  0  0  0  0  0  0  0  0
    3.2391   -1.1959   -0.0376 H   0  0  0  0  0  0  0  0  0  0  0  0
    2.3953   -0.4416    1.3157 H   0  0  0  0  0  0  0  0  0  0  0  0
    1.7526   -1.9219    0.5708 H   0  0  0  0  0  0  0  0  0  0  0  0
  1  2  1  0
  2  3  1  0
  3  4  1  0
  3  5  1  0
  3  6  1  0
  6  7  1  0
  1  8  1  0
  1  9  1  0
  1 10  1  0
  2 11  1  0
  2 12  1  0
  4 13  1  0
  4 14  1  0
  4 15  1  0
  5 16  1  0
  5 17  1  0
  5 18  1  0
  6 19  1  0
  6 20  1  0
  7 21  1  0
  7 22  1  0
  7 23  1  0
M  END
>  <Energy>  (2) 
12.191891217286337

>  <Real charge>  (2) 
0

>  <Mult>  (2) 
1

$$$$
mol_1064 270
     RDKit          3D

 23 22  0  0  0  0  0  0  0  0999 V2000
   -2.5954   -0.3489    0.0787 C   0  0  0  0  0  0  0  0  0  0  0  0
   -1.2614   -0.6674   -0.5867 C   0  0  0  0  0  0  0  0  0  0  0  0
    0.0006    0.0165    0.0206 C   0  0  0  0  0  0  0  0  0  0  0  0
   -0.1332    1.5484   -0.0559 C   0  0  0  0  0  0  0  0  0  0  0  0
    0.1753   -0.3966    1.4934 C   0  0  0  0  0  0  0  0  0  0  0  0
    1.2201   -0.4625   -0.8235 C   0  0  0  0  0  0  0  0  0  0  0  0
    2.5855    0.0789   -0.4157 C   0  0  0  0  0  0  0  0  0  0  0  0
   -2.6128   -0.6627    1.1257 H   0  0  0  0  0  0  0  0  0  0  0  0
   -3.3999   -0.8859   -0.4353 H   0  0  0  0  0  0  0  0  0  0  0  0
   -2.8316    0.7172    0.0265 H   0  0  0  0  0  0  0  0  0  0  0  0
   -1.3425   -0.3943   -1.6472 H   0  0  0  0  0  0  0  0  0  0  0  0
   -1.1265   -1.7569   -0.5619 H   0  0  0  0  0  0  0  0  0  0  0  0
   -0.9912    1.9092    0.5205 H   0  0  0  0  0  0  0  0  0  0  0  0
   -0.2595    1.8816   -1.0918 H   0  0  0  0  0  0  0  0  0  0  0  0
    0.7476    2.0528    0.3545 H   0  0  0  0  0  0  0  0  0  0  0  0
   -0.6756   -0.0813    2.1060 H   0  0  0  0  0  0  0  0  0  0  0  0
    0.2741   -1.4834    1.5887 H   0  0  0  0  0  0  0  0  0  0  0  0
    1.0633    0.0622    1.9401 H   0  0  0  0  0  0  0  0  0  0  0  0
    1.0551   -0.1964   -1.8760 H   0  0  0  0  0  0  0  0  0  0  0  0
    1.2712   -1.5589   -0.7907 H   0  0  0  0  0  0  0  0  0  0  0  0
    2.6313    1.1683   -0.4948 H   0  0  0  0  0  0  0  0  0  0  0  0
    3.3555   -0.3282   -1.0799 H   0  0  0  0  0  0  0  0  0  0  0  0
    2.8501   -0.2117    0.6044 H   0  0  0  0  0  0  0  0  0  0  0  0
  1  2  1  0
  2  3  1  0
  3  4  1  0
  3  5  1  0
  3  6  1  0
  6  7  1  0
  1  8  1  0
  1  9  1  0
  1 10  1  0
  2 11  1  0
  2 12  1  0
  4 13  1  0
  4 14  1  0
  4 15  1  0
  5 16  1  0
  5 17  1  0
  5 18  1  0
  6 19  1  0
  6 20  1  0
  7 21  1  0
  7 22  1  0
  7 23  1  0
M  END
>  <Energy>  (3) 
12.560013283253772

>  <Real charge>  (3) 
0

>  <Mult>  (3) 
1

$$$$
