mol_837 5
     RDKit          3D

 12 12  0  0  0  0  0  0  0  0999 V2000
   -3.1755   -0.0668    0.2233 Cl  0  0  0  0  0  0  0  0  0  0  0  0
   -1.4261   -0.0300    0.1003 C   0  0  0  0  0  0  0  0  0  0  0  0
   -0.7553    1.1955    0.0119 C   0  0  0  0  0  0  0  0  0  0  0  0
    0.6397    1.2246   -0.0861 C   0  0  0  0  0  0  0  0  0  0  0  0
    1.3667    0.0287   -0.0961 C   0  0  0  0  0  0  0  0  0  0  0  0
    3.4700    0.0729   -0.2440 I   0  0  0  0  0  0  0  0  0  0  0  0
    0.6961   -1.1965   -0.0078 C   0  0  0  0  0  0  0  0  0  0  0  0
   -0.6989   -1.2261    0.0903 C   0  0  0  0  0  0  0  0  0  0  0  0
   -1.3126    2.1236    0.0192 H   0  0  0  0  0  0  0  0  0  0  0  0
    1.1541    2.1744   -0.1542 H   0  0  0  0  0  0  0  0  0  0  0  0
    1.2542   -2.1238   -0.0151 H   0  0  0  0  0  0  0  0  0  0  0  0
   -1.2124   -2.1767    0.1584 H   0  0  0  0  0  0  0  0  0  0  0  0
  1  2  1  0
  2  3  2  0
  3  4  1  0
  4  5  2  0
  5  6  1  0
  5  7  1  0
  7  8  2  0
  8  2  1  0
  3  9  1  0
  4 10  1  0
  7 11  1  0
  8 12  1  0
M  END
>  <Energy>  (1) 
10.25981590359973

>  <Real charge>  (1) 
0

>  <Mult>  (1) 
1

$$$$
