mol_501 513
     RDKit          3D

 40 41  0  0  0  0  0  0  0  0999 V2000
   -1.8063   -3.3535    0.1647 C   0  0  0  0  0  0  0  0  0  0  0  0
   -1.7736   -2.2846    1.2380 C   0  0  0  0  0  0  0  0  0  0  0  0
   -2.4099   -1.1217    0.7313 O   0  0  0  0  0  0  0  0  0  0  0  0
   -2.4374    0.2290    1.6331 P   0  0  0  0  0  5  0  0  0  0  0  0
   -3.4351    0.0328    3.2961 S   0  0  0  0  0  0  0  0  0  0  0  0
   -3.1792    1.2177    0.5757 O   0  0  0  0  0  0  0  0  0  0  0  0
   -4.5028    0.9247    0.1546 C   0  0  0  0  0  0  0  0  0  0  0  0
   -4.7459    1.6232   -1.1679 C   0  0  0  0  0  0  0  0  0  0  0  0
   -0.4666    0.9549    1.7301 S   0  0  0  0  0  0  0  0  0  0  0  0
    0.0093    1.0305   -0.0313 C   0  0  0  0  0  0  0  0  0  0  0  0
   -0.3632    2.3895   -0.6437 C   0  0  0  0  0  0  0  0  0  0  0  0
   -0.0383    2.4046   -2.4051 Cl  0  0  0  0  0  0  0  0  0  0  0  0
    1.4188    0.6794   -0.1570 N   0  0  0  0  0  0  0  0  0  0  0  0
    1.8387   -0.5995   -0.4077 C   0  0  0  0  0  0  0  0  0  0  0  0
    1.1726   -1.6007   -0.5904 O   0  0  0  0  0  0  0  0  0  0  0  0
    3.2985   -0.5765   -0.3871 C   0  0  0  0  0  0  0  0  0  0  0  0
    4.2149   -1.5865   -0.6042 C   0  0  0  0  0  0  0  0  0  0  0  0
    5.5690   -1.2517   -0.5021 C   0  0  0  0  0  0  0  0  0  0  0  0
    5.9672    0.0644   -0.1867 C   0  0  0  0  0  0  0  0  0  0  0  0
    5.0182    1.0681    0.0320 C   0  0  0  0  0  0  0  0  0  0  0  0
    3.6882    0.7128   -0.0779 C   0  0  0  0  0  0  0  0  0  0  0  0
    2.4763    1.5102    0.0965 C   0  0  0  0  0  0  0  0  0  0  0  0
    2.4807    2.6814    0.4218 O   0  0  0  0  0  0  0  0  0  0  0  0
   -1.3132   -4.2671    0.5082 H   0  0  0  0  0  0  0  0  0  0  0  0
   -1.3099   -3.0035   -0.7461 H   0  0  0  0  0  0  0  0  0  0  0  0
   -2.8395   -3.5917   -0.1093 H   0  0  0  0  0  0  0  0  0  0  0  0
   -2.3039   -2.6384    2.1267 H   0  0  0  0  0  0  0  0  0  0  0  0
   -0.7392   -2.0575    1.5098 H   0  0  0  0  0  0  0  0  0  0  0  0
   -5.2065    1.2944    0.9064 H   0  0  0  0  0  0  0  0  0  0  0  0
   -4.6434   -0.1538    0.0362 H   0  0  0  0  0  0  0  0  0  0  0  0
   -5.7607    1.4343   -1.5288 H   0  0  0  0  0  0  0  0  0  0  0  0
   -4.6021    2.7040   -1.0658 H   0  0  0  0  0  0  0  0  0  0  0  0
   -4.0316    1.2773   -1.9224 H   0  0  0  0  0  0  0  0  0  0  0  0
   -0.5635    0.2519   -0.5467 H   0  0  0  0  0  0  0  0  0  0  0  0
   -1.4287    2.6039   -0.5346 H   0  0  0  0  0  0  0  0  0  0  0  0
    0.1871    3.2253   -0.2045 H   0  0  0  0  0  0  0  0  0  0  0  0
    3.8951   -2.5955   -0.8431 H   0  0  0  0  0  0  0  0  0  0  0  0
    6.3275   -2.0155   -0.6662 H   0  0  0  0  0  0  0  0  0  0  0  0
    7.0277    0.2995   -0.1112 H   0  0  0  0  0  0  0  0  0  0  0  0
    5.3104    2.0838    0.2788 H   0  0  0  0  0  0  0  0  0  0  0  0
  1  2  1  0
  2  3  1  0
  3  4  1  0
  4  5  2  0
  4  6  1  0
  6  7  1  0
  7  8  1  0
  4  9  1  0
  9 10  1  0
 10 11  1  0
 11 12  1  0
 10 13  1  0
 13 14  1  0
 14 15  2  0
 14 16  1  0
 16 17  2  0
 17 18  1  0
 18 19  2  0
 19 20  1  0
 20 21  2  0
 21 22  1  0
 22 23  2  0
 21 16  1  0
 22 13  1  0
  1 24  1  0
  1 25  1  0
  1 26  1  0
  2 27  1  0
  2 28  1  0
  7 29  1  0
  7 30  1  0
  8 31  1  0
  8 32  1  0
  8 33  1  0
 10 34  1  0
 11 35  1  0
 11 36  1  0
 17 37  1  0
 18 38  1  0
 19 39  1  0
 20 40  1  0
M  END
>  <Energy>  (1) 
-107.64832538594874

>  <Real charge>  (1) 
0

>  <Mult>  (1) 
1

$$$$
mol_501 26
     RDKit          3D

 40 41  0  0  0  0  0  0  0  0999 V2000
   -3.4054   -3.1109    0.5653 C   0  0  0  0  0  0  0  0  0  0  0  0
   -3.2831   -1.9835    1.5697 C   0  0  0  0  0  0  0  0  0  0  0  0
   -3.1411   -0.7628    0.8586 O   0  0  0  0  0  0  0  0  0  0  0  0
   -2.3882    0.4871    1.5779 P   0  0  0  0  0  5  0  0  0  0  0  0
   -3.2396    1.0429    3.2403 S   0  0  0  0  0  0  0  0  0  0  0  0
   -2.5404    1.5873    0.3910 O   0  0  0  0  0  0  0  0  0  0  0  0
   -3.8332    2.0280    0.0053 C   0  0  0  0  0  0  0  0  0  0  0  0
   -3.7493    2.5671   -1.4082 C   0  0  0  0  0  0  0  0  0  0  0  0
   -0.3473   -0.0045    1.6025 S   0  0  0  0  0  0  0  0  0  0  0  0
    0.2099    0.3426   -0.1043 C   0  0  0  0  0  0  0  0  0  0  0  0
   -0.5057   -0.5429   -1.1378 C   0  0  0  0  0  0  0  0  0  0  0  0
    0.0182   -0.1495   -2.8048 Cl  0  0  0  0  0  0  0  0  0  0  0  0
    1.6632    0.2306   -0.1517 N   0  0  0  0  0  0  0  0  0  0  0  0
    2.4946    1.3177   -0.1682 C   0  0  0  0  0  0  0  0  0  0  0  0
    2.2115    2.5002   -0.1700 O   0  0  0  0  0  0  0  0  0  0  0  0
    3.8608    0.8008   -0.1827 C   0  0  0  0  0  0  0  0  0  0  0  0
    5.0705    1.4663   -0.2083 C   0  0  0  0  0  0  0  0  0  0  0  0
    6.2294    0.6834   -0.2147 C   0  0  0  0  0  0  0  0  0  0  0  0
    6.1513   -0.7251   -0.1948 C   0  0  0  0  0  0  0  0  0  0  0  0
    4.9130   -1.3748   -0.1683 C   0  0  0  0  0  0  0  0  0  0  0  0
    3.7841   -0.5793   -0.1631 C   0  0  0  0  0  0  0  0  0  0  0  0
    2.3690   -0.9418   -0.1361 C   0  0  0  0  0  0  0  0  0  0  0  0
    1.9605   -2.0869   -0.1055 O   0  0  0  0  0  0  0  0  0  0  0  0
   -2.5143   -3.1592   -0.0692 H   0  0  0  0  0  0  0  0  0  0  0  0
   -3.5313   -4.0723    1.0709 H   0  0  0  0  0  0  0  0  0  0  0  0
   -4.2604   -2.9456   -0.0986 H   0  0  0  0  0  0  0  0  0  0  0  0
   -4.1859   -1.9306    2.1855 H   0  0  0  0  0  0  0  0  0  0  0  0
   -2.4210   -2.1563    2.2208 H   0  0  0  0  0  0  0  0  0  0  0  0
   -4.1588    2.8185    0.6879 H   0  0  0  0  0  0  0  0  0  0  0  0
   -4.5520    1.2041    0.0465 H   0  0  0  0  0  0  0  0  0  0  0  0
   -3.4024    1.7891   -2.0965 H   0  0  0  0  0  0  0  0  0  0  0  0
   -3.0270    3.3881   -1.4661 H   0  0  0  0  0  0  0  0  0  0  0  0
   -4.7240    2.9295   -1.7466 H   0  0  0  0  0  0  0  0  0  0  0  0
   -0.0461    1.3888   -0.3052 H   0  0  0  0  0  0  0  0  0  0  0  0
   -0.3224   -1.6097   -0.9846 H   0  0  0  0  0  0  0  0  0  0  0  0
   -1.5852   -0.3829   -1.1273 H   0  0  0  0  0  0  0  0  0  0  0  0
    5.1158    2.5505   -0.2227 H   0  0  0  0  0  0  0  0  0  0  0  0
    7.2055    1.1653   -0.2348 H   0  0  0  0  0  0  0  0  0  0  0  0
    7.0683   -1.3122   -0.1999 H   0  0  0  0  0  0  0  0  0  0  0  0
    4.8385   -2.4572   -0.1520 H   0  0  0  0  0  0  0  0  0  0  0  0
  1  2  1  0
  2  3  1  0
  3  4  1  0
  4  5  2  0
  4  6  1  0
  6  7  1  0
  7  8  1  0
  4  9  1  0
  9 10  1  0
 10 11  1  0
 11 12  1  0
 10 13  1  0
 13 14  1  0
 14 15  2  0
 14 16  1  0
 16 17  2  0
 17 18  1  0
 18 19  2  0
 19 20  1  0
 20 21  2  0
 21 22  1  0
 22 23  2  0
 21 16  1  0
 22 13  1  0
  1 24  1  0
  1 25  1  0
  1 26  1  0
  2 27  1  0
  2 28  1  0
  7 29  1  0
  7 30  1  0
  8 31  1  0
  8 32  1  0
  8 33  1  0
 10 34  1  0
 11 35  1  0
 11 36  1  0
 17 37  1  0
 18 38  1  0
 19 39  1  0
 20 40  1  0
M  END
>  <Energy>  (2) 
-106.92968291243146

>  <Real charge>  (2) 
0

>  <Mult>  (2) 
1

$$$$
