mol_1119 63
     RDKit          3D

 20 19  0  0  0  0  0  0  0  0999 V2000
   -2.4661   -0.7460    0.8988 C   0  0  0  0  0  0  0  0  0  0  0  0
   -1.3501   -0.3103   -0.0483 C   0  0  0  0  0  0  0  0  0  0  0  0
   -1.6274    1.0954   -0.5859 C   0  0  0  0  0  0  0  0  0  0  0  0
    0.0095   -0.3798    0.6584 C   0  0  0  0  0  0  0  0  0  0  0  0
    1.0459   -0.0866   -0.2893 O   0  0  0  0  0  0  0  0  0  0  0  0
    2.3021   -0.0998    0.2339 C   0  0  0  0  0  0  0  0  0  0  0  0
    2.5846   -0.3368    1.3997 O   0  0  0  0  0  0  0  0  0  0  0  0
    3.3039    0.2208   -0.8326 C   0  0  0  0  0  0  0  0  0  0  0  0
   -2.5271   -0.0871    1.7717 H   0  0  0  0  0  0  0  0  0  0  0  0
   -3.4366   -0.7271    0.3916 H   0  0  0  0  0  0  0  0  0  0  0  0
   -2.2963   -1.7672    1.2560 H   0  0  0  0  0  0  0  0  0  0  0  0
   -1.3316   -0.9925   -0.9078 H   0  0  0  0  0  0  0  0  0  0  0  0
   -0.8680    1.3977   -1.3143 H   0  0  0  0  0  0  0  0  0  0  0  0
   -2.6000    1.1332   -1.0879 H   0  0  0  0  0  0  0  0  0  0  0  0
   -1.6353    1.8346    0.2224 H   0  0  0  0  0  0  0  0  0  0  0  0
    0.0488    0.3441    1.4818 H   0  0  0  0  0  0  0  0  0  0  0  0
    0.1692   -1.3887    1.0578 H   0  0  0  0  0  0  0  0  0  0  0  0
    4.3087    0.2107   -0.4008 H   0  0  0  0  0  0  0  0  0  0  0  0
    3.2570   -0.5320   -1.6234 H   0  0  0  0  0  0  0  0  0  0  0  0
    3.1087    1.2172   -1.2369 H   0  0  0  0  0  0  0  0  0  0  0  0
  1  2  1  0
  2  3  1  0
  2  4  1  0
  4  5  1  0
  5  6  1  0
  6  7  2  0
  6  8  1  0
  1  9  1  0
  1 10  1  0
  1 11  1  0
  2 12  1  0
  3 13  1  0
  3 14  1  0
  3 15  1  0
  4 16  1  0
  4 17  1  0
  8 18  1  0
  8 19  1  0
  8 20  1  0
M  END
>  <Energy>  (1) 
-6.853410047831384

>  <Real charge>  (1) 
0

>  <Mult>  (1) 
1

$$$$
mol_1119 219
     RDKit          3D

 20 19  0  0  0  0  0  0  0  0999 V2000
   -1.8681    0.6237   -1.1333 C   0  0  0  0  0  0  0  0  0  0  0  0
   -1.5234    0.2339    0.3050 C   0  0  0  0  0  0  0  0  0  0  0  0
   -1.7016   -1.2732    0.4953 C   0  0  0  0  0  0  0  0  0  0  0  0
   -0.1028    0.6796    0.6790 C   0  0  0  0  0  0  0  0  0  0  0  0
    0.8552    0.0342   -0.1707 O   0  0  0  0  0  0  0  0  0  0  0  0
    2.1484    0.3696    0.0877 C   0  0  0  0  0  0  0  0  0  0  0  0
    2.5221    1.1466    0.9546 O   0  0  0  0  0  0  0  0  0  0  0  0
    3.0622   -0.3563   -0.8512 C   0  0  0  0  0  0  0  0  0  0  0  0
   -1.2243    0.1129   -1.8570 H   0  0  0  0  0  0  0  0  0  0  0  0
   -2.9062    0.3629   -1.3656 H   0  0  0  0  0  0  0  0  0  0  0  0
   -1.7546    1.7029   -1.2801 H   0  0  0  0  0  0  0  0  0  0  0  0
   -2.2241    0.7476    0.9750 H   0  0  0  0  0  0  0  0  0  0  0  0
   -1.4679   -1.5642    1.5248 H   0  0  0  0  0  0  0  0  0  0  0  0
   -1.0523   -1.8460   -0.1753 H   0  0  0  0  0  0  0  0  0  0  0  0
   -2.7367   -1.5681    0.2923 H   0  0  0  0  0  0  0  0  0  0  0  0
    0.1032    0.4160    1.7236 H   0  0  0  0  0  0  0  0  0  0  0  0
   -0.0153    1.7670    0.5638 H   0  0  0  0  0  0  0  0  0  0  0  0
    4.0981   -0.0798   -0.6350 H   0  0  0  0  0  0  0  0  0  0  0  0
    2.9538   -1.4351   -0.7139 H   0  0  0  0  0  0  0  0  0  0  0  0
    2.8343   -0.0743   -1.8822 H   0  0  0  0  0  0  0  0  0  0  0  0
  1  2  1  0
  2  3  1  0
  2  4  1  0
  4  5  1  0
  5  6  1  0
  6  7  2  0
  6  8  1  0
  1  9  1  0
  1 10  1  0
  1 11  1  0
  2 12  1  0
  3 13  1  0
  3 14  1  0
  3 15  1  0
  4 16  1  0
  4 17  1  0
  8 18  1  0
  8 19  1  0
  8 20  1  0
M  END
>  <Energy>  (2) 
-6.752056252308374

>  <Real charge>  (2) 
0

>  <Mult>  (2) 
1

$$$$
mol_1119 6
     RDKit          3D

 20 19  0  0  0  0  0  0  0  0999 V2000
   -2.3878   -0.9506   -0.2177 C   0  0  0  0  0  0  0  0  0  0  0  0
   -1.1206   -0.1021   -0.1347 C   0  0  0  0  0  0  0  0  0  0  0  0
   -1.4582    1.3166    0.3281 C   0  0  0  0  0  0  0  0  0  0  0  0
   -0.0958   -0.7643    0.7966 C   0  0  0  0  0  0  0  0  0  0  0  0
    1.1245   -0.0073    0.8461 O   0  0  0  0  0  0  0  0  0  0  0  0
    2.0264   -0.2744   -0.1376 C   0  0  0  0  0  0  0  0  0  0  0  0
    1.8809   -1.0869   -1.0394 O   0  0  0  0  0  0  0  0  0  0  0  0
    3.2410    0.5847    0.0385 C   0  0  0  0  0  0  0  0  0  0  0  0
   -2.8650   -1.0505    0.7631 H   0  0  0  0  0  0  0  0  0  0  0  0
   -3.1136   -0.5003   -0.9031 H   0  0  0  0  0  0  0  0  0  0  0  0
   -2.1587   -1.9556   -0.5875 H   0  0  0  0  0  0  0  0  0  0  0  0
   -0.6896   -0.0232   -1.1403 H   0  0  0  0  0  0  0  0  0  0  0  0
   -1.8763    1.3147    1.3405 H   0  0  0  0  0  0  0  0  0  0  0  0
   -0.5682    1.9542    0.3296 H   0  0  0  0  0  0  0  0  0  0  0  0
   -2.1934    1.7775   -0.3402 H   0  0  0  0  0  0  0  0  0  0  0  0
    0.1067   -1.8007    0.4992 H   0  0  0  0  0  0  0  0  0  0  0  0
   -0.4840   -0.8044    1.8210 H   0  0  0  0  0  0  0  0  0  0  0  0
    2.9628    1.6390   -0.0357 H   0  0  0  0  0  0  0  0  0  0  0  0
    3.9629    0.3579   -0.7512 H   0  0  0  0  0  0  0  0  0  0  0  0
    3.7060    0.3758    1.0052 H   0  0  0  0  0  0  0  0  0  0  0  0
  1  2  1  0
  2  3  1  0
  2  4  1  0
  4  5  1  0
  5  6  1  0
  6  7  2  0
  6  8  1  0
  1  9  1  0
  1 10  1  0
  1 11  1  0
  2 12  1  0
  3 13  1  0
  3 14  1  0
  3 15  1  0
  4 16  1  0
  4 17  1  0
  8 18  1  0
  8 19  1  0
  8 20  1  0
M  END
>  <Energy>  (3) 
-6.580736704425048

>  <Real charge>  (3) 
0

>  <Mult>  (3) 
1

$$$$
