mol_475 83
     RDKit          3D

 14 13  0  0  0  0  0  0  0  0999 V2000
   -0.9927   -0.9598   -0.4244 C   0  0  0  0  0  0  0  0  0  0  0  0
   -0.0726   -0.0364    0.3792 C   0  0  0  0  0  0  0  0  0  0  0  0
   -0.4433    1.4218    0.0975 C   0  0  0  0  0  0  0  0  0  0  0  0
    1.4015   -0.2639    0.0455 C   0  0  0  0  0  0  0  0  0  0  0  0
    2.0496   -1.9373    0.8071 Br  0  0  0  0  0  0  0  0  0  0  0  0
   -0.8530   -0.8196   -1.5019 H   0  0  0  0  0  0  0  0  0  0  0  0
   -2.0435   -0.7548   -0.1927 H   0  0  0  0  0  0  0  0  0  0  0  0
   -0.8079   -2.0131   -0.1933 H   0  0  0  0  0  0  0  0  0  0  0  0
   -0.2442   -0.2246    1.4467 H   0  0  0  0  0  0  0  0  0  0  0  0
   -0.2955    1.6731   -0.9585 H   0  0  0  0  0  0  0  0  0  0  0  0
    0.1706    2.1021    0.6973 H   0  0  0  0  0  0  0  0  0  0  0  0
   -1.4923    1.6127    0.3481 H   0  0  0  0  0  0  0  0  0  0  0  0
    1.5850   -0.3123   -1.0319 H   0  0  0  0  0  0  0  0  0  0  0  0
    2.0382    0.5121    0.4812 H   0  0  0  0  0  0  0  0  0  0  0  0
  1  2  1  0
  2  3  1  0
  2  4  1  0
  4  5  1  0
  1  6  1  0
  1  7  1  0
  1  8  1  0
  2  9  1  0
  3 10  1  0
  3 11  1  0
  3 12  1  0
  4 13  1  0
  4 14  1  0
M  END
>  <Energy>  (1) 
2.748798444560596

>  <Real charge>  (1) 
0

>  <Mult>  (1) 
1

$$$$
mol_475 63
     RDKit          3D

 14 13  0  0  0  0  0  0  0  0999 V2000
   -1.0491    0.9960    0.2325 C   0  0  0  0  0  0  0  0  0  0  0  0
   -0.0322   -0.1342    0.3998 C   0  0  0  0  0  0  0  0  0  0  0  0
   -0.3880   -1.3241   -0.4930 C   0  0  0  0  0  0  0  0  0  0  0  0
    1.4136    0.3325    0.2250 C   0  0  0  0  0  0  0  0  0  0  0  0
    1.8102    1.0030   -1.5578 Br  0  0  0  0  0  0  0  0  0  0  0  0
   -2.0500    0.6545    0.5186 H   0  0  0  0  0  0  0  0  0  0  0  0
   -0.7940    1.8477    0.8717 H   0  0  0  0  0  0  0  0  0  0  0  0
   -1.1065    1.3486   -0.8020 H   0  0  0  0  0  0  0  0  0  0  0  0
   -0.1172   -0.4831    1.4381 H   0  0  0  0  0  0  0  0  0  0  0  0
    0.3404   -2.1329   -0.3731 H   0  0  0  0  0  0  0  0  0  0  0  0
   -0.4233   -1.0486   -1.5516 H   0  0  0  0  0  0  0  0  0  0  0  0
   -1.3728   -1.7219   -0.2245 H   0  0  0  0  0  0  0  0  0  0  0  0
    1.6515    1.1488    0.9139 H   0  0  0  0  0  0  0  0  0  0  0  0
    2.1175   -0.4863    0.4025 H   0  0  0  0  0  0  0  0  0  0  0  0
  1  2  1  0
  2  3  1  0
  2  4  1  0
  4  5  1  0
  1  6  1  0
  1  7  1  0
  1  8  1  0
  2  9  1  0
  3 10  1  0
  3 11  1  0
  3 12  1  0
  4 13  1  0
  4 14  1  0
M  END
>  <Energy>  (2) 
3.3319805266874463

>  <Real charge>  (2) 
0

>  <Mult>  (2) 
1

$$$$
