mol_159 306
     RDKit          3D

 24 24  0  0  0  0  0  0  0  0999 V2000
   -2.8641   -2.2191   -0.1209 C   0  0  0  0  0  0  0  0  0  0  0  0
   -3.1811   -0.8687   -0.3491 O   0  0  0  0  0  0  0  0  0  0  0  0
   -1.7508   -0.0352   -0.7700 P   0  0  0  0  0  5  0  0  0  0  0  0
   -1.5534   -0.1053   -2.4872 S   0  0  0  0  0  0  0  0  0  0  0  0
   -1.9069    1.5958   -0.3000 O   0  0  0  0  0  0  0  0  0  0  0  0
   -2.0373    1.6343    1.0987 C   0  0  0  0  0  0  0  0  0  0  0  0
   -0.3776   -0.7463    0.0011 O   0  0  0  0  0  0  0  0  0  0  0  0
    0.9341   -0.2456   -0.0403 C   0  0  0  0  0  0  0  0  0  0  0  0
    1.2732    0.9531   -0.6987 C   0  0  0  0  0  0  0  0  0  0  0  0
    2.5955    1.4120   -0.7073 C   0  0  0  0  0  0  0  0  0  0  0  0
    2.9635    2.9144   -1.5437 Cl  0  0  0  0  0  0  0  0  0  0  0  0
    3.5967    0.6745   -0.0545 C   0  0  0  0  0  0  0  0  0  0  0  0
    5.6191    1.3053   -0.0244 I   0  0  0  0  0  0  0  0  0  0  0  0
    3.2637   -0.5144    0.6006 C   0  0  0  0  0  0  0  0  0  0  0  0
    1.9428   -0.9729    0.6096 C   0  0  0  0  0  0  0  0  0  0  0  0
    1.5614   -2.4713    1.4451 Cl  0  0  0  0  0  0  0  0  0  0  0  0
   -2.3597   -2.6787   -1.0002 H   0  0  0  0  0  0  0  0  0  0  0  0
   -3.8074   -2.7775    0.0479 H   0  0  0  0  0  0  0  0  0  0  0  0
   -2.2446   -2.3311    0.7955 H   0  0  0  0  0  0  0  0  0  0  0  0
   -1.1284    1.2370    1.6018 H   0  0  0  0  0  0  0  0  0  0  0  0
   -2.9461    1.0895    1.4375 H   0  0  0  0  0  0  0  0  0  0  0  0
   -2.1507    2.6924    1.4113 H   0  0  0  0  0  0  0  0  0  0  0  0
    0.5243    1.5414   -1.2067 H   0  0  0  0  0  0  0  0  0  0  0  0
    4.0339   -1.0839    1.1049 H   0  0  0  0  0  0  0  0  0  0  0  0
  1  2  1  0
  2  3  1  0
  3  4  2  0
  3  5  1  0
  5  6  1  0
  3  7  1  0
  7  8  1  0
  8  9  2  0
  9 10  1  0
 10 11  1  0
 10 12  2  0
 12 13  1  0
 12 14  1  0
 14 15  2  0
 15 16  1  0
 15  8  1  0
  1 17  1  0
  1 18  1  0
  1 19  1  0
  6 20  1  0
  6 21  1  0
  6 22  1  0
  9 23  1  0
 14 24  1  0
M  END
>  <Energy>  (1) 
20.74502992854844

>  <Real charge>  (1) 
0

>  <Mult>  (1) 
1

$$$$
mol_159 125
     RDKit          3D

 24 24  0  0  0  0  0  0  0  0999 V2000
   -2.2569    2.0650    1.5916 C   0  0  0  0  0  0  0  0  0  0  0  0
   -1.2459    2.1563    0.6191 O   0  0  0  0  0  0  0  0  0  0  0  0
   -1.5794    1.0356   -0.6256 P   0  0  0  0  0  5  0  0  0  0  0  0
   -2.6007    1.7958   -1.7980 S   0  0  0  0  0  0  0  0  0  0  0  0
   -2.3512   -0.3565    0.0021 O   0  0  0  0  0  0  0  0  0  0  0  0
   -2.2303   -1.4033   -0.9296 C   0  0  0  0  0  0  0  0  0  0  0  0
   -0.0883    0.6172   -1.3830 O   0  0  0  0  0  0  0  0  0  0  0  0
    1.0178    0.0597   -0.7218 C   0  0  0  0  0  0  0  0  0  0  0  0
    0.9960   -0.2692    0.6483 C   0  0  0  0  0  0  0  0  0  0  0  0
    2.1220   -0.8263    1.2652 C   0  0  0  0  0  0  0  0  0  0  0  0
    2.0402   -1.2193    2.9772 Cl  0  0  0  0  0  0  0  0  0  0  0  0
    3.2861   -1.0620    0.5154 C   0  0  0  0  0  0  0  0  0  0  0  0
    5.0287   -1.9021    1.3792 I   0  0  0  0  0  0  0  0  0  0  0  0
    3.3102   -0.7391   -0.8444 C   0  0  0  0  0  0  0  0  0  0  0  0
    2.1853   -0.1829   -1.4613 C   0  0  0  0  0  0  0  0  0  0  0  0
    2.2519    0.2077   -3.1733 Cl  0  0  0  0  0  0  0  0  0  0  0  0
   -2.0941    2.8644    2.3430 H   0  0  0  0  0  0  0  0  0  0  0  0
   -2.2048    1.0923    2.1274 H   0  0  0  0  0  0  0  0  0  0  0  0
   -3.2673    2.2235    1.1527 H   0  0  0  0  0  0  0  0  0  0  0  0
   -2.6503   -1.1257   -1.9214 H   0  0  0  0  0  0  0  0  0  0  0  0
   -1.1743   -1.7334   -1.0265 H   0  0  0  0  0  0  0  0  0  0  0  0
   -2.8121   -2.2712   -0.5578 H   0  0  0  0  0  0  0  0  0  0  0  0
    0.1114   -0.1048    1.2459 H   0  0  0  0  0  0  0  0  0  0  0  0
    4.2061   -0.9215   -1.4241 H   0  0  0  0  0  0  0  0  0  0  0  0
  1  2  1  0
  2  3  1  0
  3  4  2  0
  3  5  1  0
  5  6  1  0
  3  7  1  0
  7  8  1  0
  8  9  2  0
  9 10  1  0
 10 11  1  0
 10 12  2  0
 12 13  1  0
 12 14  1  0
 14 15  2  0
 15 16  1  0
 15  8  1  0
  1 17  1  0
  1 18  1  0
  1 19  1  0
  6 20  1  0
  6 21  1  0
  6 22  1  0
  9 23  1  0
 14 24  1  0
M  END
>  <Energy>  (2) 
21.271866077183017

>  <Real charge>  (2) 
0

>  <Mult>  (2) 
1

$$$$
mol_159 296
     RDKit          3D

 24 24  0  0  0  0  0  0  0  0999 V2000
   -1.9387    2.3529    0.5038 C   0  0  0  0  0  0  0  0  0  0  0  0
   -2.2200    1.1422    1.1633 O   0  0  0  0  0  0  0  0  0  0  0  0
   -2.1462   -0.1373    0.0331 P   0  0  0  0  0  5  0  0  0  0  0  0
   -3.5920   -0.1382   -0.9209 S   0  0  0  0  0  0  0  0  0  0  0  0
   -2.0483   -1.6032    0.9058 O   0  0  0  0  0  0  0  0  0  0  0  0
   -1.6274   -2.6266    0.0368 C   0  0  0  0  0  0  0  0  0  0  0  0
   -0.7789    0.0456   -1.0058 O   0  0  0  0  0  0  0  0  0  0  0  0
    0.5580    0.0890   -0.5774 C   0  0  0  0  0  0  0  0  0  0  0  0
    0.9230   -0.0154    0.7794 C   0  0  0  0  0  0  0  0  0  0  0  0
    2.2687    0.0330    1.1608 C   0  0  0  0  0  0  0  0  0  0  0  0
    2.6690   -0.1021    2.8676 Cl  0  0  0  0  0  0  0  0  0  0  0  0
    3.2674    0.1869    0.1852 C   0  0  0  0  0  0  0  0  0  0  0  0
    5.3245    0.2686    0.6854 I   0  0  0  0  0  0  0  0  0  0  0  0
    2.9084    0.2908   -1.1618 C   0  0  0  0  0  0  0  0  0  0  0  0
    1.5640    0.2425   -1.5431 C   0  0  0  0  0  0  0  0  0  0  0  0
    1.1502    0.3763   -3.2456 Cl  0  0  0  0  0  0  0  0  0  0  0  0
   -2.0756    3.1840    1.2254 H   0  0  0  0  0  0  0  0  0  0  0  0
   -0.8833    2.3882    0.1605 H   0  0  0  0  0  0  0  0  0  0  0  0
   -2.6356    2.5355   -0.3435 H   0  0  0  0  0  0  0  0  0  0  0  0
   -1.6522   -3.5874    0.5903 H   0  0  0  0  0  0  0  0  0  0  0  0
   -0.5797   -2.4671   -0.2949 H   0  0  0  0  0  0  0  0  0  0  0  0
   -2.3061   -2.7336   -0.8377 H   0  0  0  0  0  0  0  0  0  0  0  0
    0.1740   -0.1344    1.5487 H   0  0  0  0  0  0  0  0  0  0  0  0
    3.6768    0.4095   -1.9151 H   0  0  0  0  0  0  0  0  0  0  0  0
  1  2  1  0
  2  3  1  0
  3  4  2  0
  3  5  1  0
  5  6  1  0
  3  7  1  0
  7  8  1  0
  8  9  2  0
  9 10  1  0
 10 11  1  0
 10 12  2  0
 12 13  1  0
 12 14  1  0
 14 15  2  0
 15 16  1  0
 15  8  1  0
  1 17  1  0
  1 18  1  0
  1 19  1  0
  6 20  1  0
  6 21  1  0
  6 22  1  0
  9 23  1  0
 14 24  1  0
M  END
>  <Energy>  (3) 
21.365492622092926

>  <Real charge>  (3) 
0

>  <Mult>  (3) 
1

$$$$
mol_159 86
     RDKit          3D

 24 24  0  0  0  0  0  0  0  0999 V2000
   -1.7937   -1.0047    1.1920 C   0  0  0  0  0  0  0  0  0  0  0  0
   -1.5615    0.3781    1.2983 O   0  0  0  0  0  0  0  0  0  0  0  0
   -1.3463    1.0070   -0.2745 P   0  0  0  0  0  5  0  0  0  0  0  0
   -0.7697    2.6368   -0.1711 S   0  0  0  0  0  0  0  0  0  0  0  0
   -2.8185    0.9749   -1.1421 O   0  0  0  0  0  0  0  0  0  0  0  0
   -3.8404    1.5023   -0.3306 C   0  0  0  0  0  0  0  0  0  0  0  0
   -0.1940    0.0642   -1.1481 O   0  0  0  0  0  0  0  0  0  0  0  0
    1.1236   -0.2035   -0.7386 C   0  0  0  0  0  0  0  0  0  0  0  0
    1.6360    0.2165    0.5052 C   0  0  0  0  0  0  0  0  0  0  0  0
    2.9547   -0.0790    0.8696 C   0  0  0  0  0  0  0  0  0  0  0  0
    3.5424    0.4683    2.4339 Cl  0  0  0  0  0  0  0  0  0  0  0  0
    3.7783   -0.8017   -0.0089 C   0  0  0  0  0  0  0  0  0  0  0  0
    5.7838   -1.2865    0.4728 I   0  0  0  0  0  0  0  0  0  0  0  0
    3.2729   -1.2223   -1.2421 C   0  0  0  0  0  0  0  0  0  0  0  0
    1.9554   -0.9277   -1.6063 C   0  0  0  0  0  0  0  0  0  0  0  0
    1.3550   -1.4756   -3.1644 Cl  0  0  0  0  0  0  0  0  0  0  0  0
   -2.6607   -1.2314    0.5325 H   0  0  0  0  0  0  0  0  0  0  0  0
   -2.0351   -1.3979    2.2005 H   0  0  0  0  0  0  0  0  0  0  0  0
   -0.8846   -1.5371    0.8392 H   0  0  0  0  0  0  0  0  0  0  0  0
   -4.0052    0.8795    0.5745 H   0  0  0  0  0  0  0  0  0  0  0  0
   -3.6360    2.5582   -0.0491 H   0  0  0  0  0  0  0  0  0  0  0  0
   -4.7861    1.4947   -0.9100 H   0  0  0  0  0  0  0  0  0  0  0  0
    1.0237    0.7678    1.2027 H   0  0  0  0  0  0  0  0  0  0  0  0
    3.9059   -1.7808   -1.9199 H   0  0  0  0  0  0  0  0  0  0  0  0
  1  2  1  0
  2  3  1  0
  3  4  2  0
  3  5  1  0
  5  6  1  0
  3  7  1  0
  7  8  1  0
  8  9  2  0
  9 10  1  0
 10 11  1  0
 10 12  2  0
 12 13  1  0
 12 14  1  0
 14 15  2  0
 15 16  1  0
 15  8  1  0
  1 17  1  0
  1 18  1  0
  1 19  1  0
  6 20  1  0
  6 21  1  0
  6 22  1  0
  9 23  1  0
 14 24  1  0
M  END
>  <Energy>  (4) 
21.563212688147182

>  <Real charge>  (4) 
0

>  <Mult>  (4) 
1

$$$$
mol_159 55
     RDKit          3D

 24 24  0  0  0  0  0  0  0  0999 V2000
   -3.0070   -1.3855    0.5105 C   0  0  0  0  0  0  0  0  0  0  0  0
   -2.9892   -0.7524   -0.7446 O   0  0  0  0  0  0  0  0  0  0  0  0
   -1.4933    0.0510   -0.9145 P   0  0  0  0  0  5  0  0  0  0  0  0
   -1.2823    0.4773   -2.5793 S   0  0  0  0  0  0  0  0  0  0  0  0
   -1.4464    1.4477    0.0700 O   0  0  0  0  0  0  0  0  0  0  0  0
   -2.6525    2.1552   -0.0847 C   0  0  0  0  0  0  0  0  0  0  0  0
   -0.2183   -1.0133   -0.4458 O   0  0  0  0  0  0  0  0  0  0  0  0
    1.1395   -0.6673   -0.3448 C   0  0  0  0  0  0  0  0  0  0  0  0
    1.6196    0.6297   -0.6157 C   0  0  0  0  0  0  0  0  0  0  0  0
    2.9831    0.9239   -0.4993 C   0  0  0  0  0  0  0  0  0  0  0  0
    3.5284    2.5584   -0.8504 Cl  0  0  0  0  0  0  0  0  0  0  0  0
    3.8848   -0.0794   -0.1084 C   0  0  0  0  0  0  0  0  0  0  0  0
    5.9616    0.2903    0.0897 I   0  0  0  0  0  0  0  0  0  0  0  0
    3.4123   -1.3666    0.1619 C   0  0  0  0  0  0  0  0  0  0  0  0
    2.0503   -1.6610    0.0455 C   0  0  0  0  0  0  0  0  0  0  0  0
    1.4935   -3.2908    0.3953 Cl  0  0  0  0  0  0  0  0  0  0  0  0
   -2.8202   -0.6672    1.3400 H   0  0  0  0  0  0  0  0  0  0  0  0
   -4.0153   -1.8189    0.6706 H   0  0  0  0  0  0  0  0  0  0  0  0
   -2.2773   -2.2236    0.5437 H   0  0  0  0  0  0  0  0  0  0  0  0
   -3.5176    1.5676    0.2909 H   0  0  0  0  0  0  0  0  0  0  0  0
   -2.5955    3.0808    0.5238 H   0  0  0  0  0  0  0  0  0  0  0  0
   -2.8145    2.4648   -1.1403 H   0  0  0  0  0  0  0  0  0  0  0  0
    0.9502    1.4205   -0.9188 H   0  0  0  0  0  0  0  0  0  0  0  0
    4.1058   -2.1412    0.4637 H   0  0  0  0  0  0  0  0  0  0  0  0
  1  2  1  0
  2  3  1  0
  3  4  2  0
  3  5  1  0
  5  6  1  0
  3  7  1  0
  7  8  1  0
  8  9  2  0
  9 10  1  0
 10 11  1  0
 10 12  2  0
 12 13  1  0
 12 14  1  0
 14 15  2  0
 15 16  1  0
 15  8  1  0
  1 17  1  0
  1 18  1  0
  1 19  1  0
  6 20  1  0
  6 21  1  0
  6 22  1  0
  9 23  1  0
 14 24  1  0
M  END
>  <Energy>  (5) 
21.65451178095562

>  <Real charge>  (5) 
0

>  <Mult>  (5) 
1

$$$$
