mol_831 4
     RDKit          3D

 15 15  0  0  0  0  0  0  0  0999 V2000
   -2.2731   -0.0183   -0.0156 C   0  0  0  0  0  0  0  0  0  0  0  0
   -0.7731   -0.0078    0.0196 C   0  0  0  0  0  0  0  0  0  0  0  0
   -0.0743    1.2048    0.0828 C   0  0  0  0  0  0  0  0  0  0  0  0
    1.3224    1.2177    0.0839 C   0  0  0  0  0  0  0  0  0  0  0  0
    2.0243    0.0165    0.0111 C   0  0  0  0  0  0  0  0  0  0  0  0
    3.9147    0.0326    0.0114 Br  0  0  0  0  0  0  0  0  0  0  0  0
    1.3429   -1.1961   -0.0668 C   0  0  0  0  0  0  0  0  0  0  0  0
   -0.0538   -1.2068   -0.0678 C   0  0  0  0  0  0  0  0  0  0  0  0
   -2.6233    0.0433   -1.0505 H   0  0  0  0  0  0  0  0  0  0  0  0
   -2.6828    0.8263    0.5482 H   0  0  0  0  0  0  0  0  0  0  0  0
   -2.6679   -0.9334    0.4383 H   0  0  0  0  0  0  0  0  0  0  0  0
   -0.6143    2.1479    0.1324 H   0  0  0  0  0  0  0  0  0  0  0  0
    1.8497    2.1661    0.1388 H   0  0  0  0  0  0  0  0  0  0  0  0
    1.8862   -2.1349   -0.1297 H   0  0  0  0  0  0  0  0  0  0  0  0
   -0.5777   -2.1578   -0.1364 H   0  0  0  0  0  0  0  0  0  0  0  0
  1  2  1  0
  2  3  2  0
  3  4  1  0
  4  5  2  0
  5  6  1  0
  5  7  1  0
  7  8  2  0
  8  2  1  0
  1  9  1  0
  1 10  1  0
  1 11  1  0
  3 12  1  0
  4 13  1  0
  7 14  1  0
  8 15  1  0
M  END
>  <Energy>  (1) 
17.856902852109663

>  <Real charge>  (1) 
0

>  <Mult>  (1) 
1

$$$$
