mol_198 360
     RDKit          3D

 25 24  0  0  0  0  0  0  0  0999 V2000
    4.2884    0.2614    0.5132 C   0  0  0  0  0  0  0  0  0  0  0  0
    2.9673   -0.4855    0.6055 C   0  0  0  0  0  0  0  0  0  0  0  0
    1.8061    0.3648    0.0908 C   0  0  0  0  0  0  0  0  0  0  0  0
    0.4792   -0.3901    0.1854 C   0  0  0  0  0  0  0  0  0  0  0  0
   -0.6830    0.4608   -0.3297 C   0  0  0  0  0  0  0  0  0  0  0  0
   -2.0102   -0.2940   -0.2352 C   0  0  0  0  0  0  0  0  0  0  0  0
   -3.1718    0.5559   -0.7498 C   0  0  0  0  0  0  0  0  0  0  0  0
   -4.4447   -0.1743   -0.6567 C   0  0  0  0  0  0  0  0  0  0  0  0
   -5.4858   -0.7680   -0.5820 C   0  0  0  0  0  0  0  0  0  0  0  0
    5.1047   -0.3649    0.8863 H   0  0  0  0  0  0  0  0  0  0  0  0
    4.2633    1.1783    1.1107 H   0  0  0  0  0  0  0  0  0  0  0  0
    4.5144    0.5323   -0.5230 H   0  0  0  0  0  0  0  0  0  0  0  0
    3.0369   -1.4121    0.0240 H   0  0  0  0  0  0  0  0  0  0  0  0
    2.7871   -0.7697    1.6488 H   0  0  0  0  0  0  0  0  0  0  0  0
    1.9933    0.6499   -0.9516 H   0  0  0  0  0  0  0  0  0  0  0  0
    1.7436    1.2923    0.6731 H   0  0  0  0  0  0  0  0  0  0  0  0
    0.2921   -0.6749    1.2279 H   0  0  0  0  0  0  0  0  0  0  0  0
    0.5418   -1.3174   -0.3970 H   0  0  0  0  0  0  0  0  0  0  0  0
   -0.7456    1.3880    0.2528 H   0  0  0  0  0  0  0  0  0  0  0  0
   -0.4958    0.7455   -1.3722 H   0  0  0  0  0  0  0  0  0  0  0  0
   -2.1955   -0.5835    0.8072 H   0  0  0  0  0  0  0  0  0  0  0  0
   -1.9464   -1.2245   -0.8140 H   0  0  0  0  0  0  0  0  0  0  0  0
   -2.9902    0.8416   -1.7925 H   0  0  0  0  0  0  0  0  0  0  0  0
   -3.2397    1.4834   -0.1693 H   0  0  0  0  0  0  0  0  0  0  0  0
   -6.4097   -1.2951   -0.5156 H   0  0  0  0  0  0  0  0  0  0  0  0
  1  2  1  0
  2  3  1  0
  3  4  1  0
  4  5  1  0
  5  6  1  0
  6  7  1  0
  7  8  1  0
  8  9  3  0
  1 10  1  0
  1 11  1  0
  1 12  1  0
  2 13  1  0
  2 14  1  0
  3 15  1  0
  3 16  1  0
  4 17  1  0
  4 18  1  0
  5 19  1  0
  5 20  1  0
  6 21  1  0
  6 22  1  0
  7 23  1  0
  7 24  1  0
  9 25  1  0
M  END
>  <Energy>  (1) 
-0.4430753362986781

>  <Real charge>  (1) 
0

>  <Mult>  (1) 
1

$$$$
mol_198 96
     RDKit          3D

 25 24  0  0  0  0  0  0  0  0999 V2000
   -3.6560    1.9496    0.1817 C   0  0  0  0  0  0  0  0  0  0  0  0
   -2.8305    0.7166    0.5127 C   0  0  0  0  0  0  0  0  0  0  0  0
   -1.4346    0.7948   -0.1050 C   0  0  0  0  0  0  0  0  0  0  0  0
   -0.6074   -0.4473    0.2303 C   0  0  0  0  0  0  0  0  0  0  0  0
    0.7901   -0.3692   -0.3882 C   0  0  0  0  0  0  0  0  0  0  0  0
    1.6164   -1.6151   -0.0512 C   0  0  0  0  0  0  0  0  0  0  0  0
    3.0024   -1.6023   -0.6984 C   0  0  0  0  0  0  0  0  0  0  0  0
    3.8861   -0.5870   -0.1059 C   0  0  0  0  0  0  0  0  0  0  0  0
    4.6113    0.2403    0.3756 C   0  0  0  0  0  0  0  0  0  0  0  0
   -3.1779    2.8565    0.5656 H   0  0  0  0  0  0  0  0  0  0  0  0
   -3.7818    2.0588   -0.9002 H   0  0  0  0  0  0  0  0  0  0  0  0
   -4.6501    1.8726    0.6332 H   0  0  0  0  0  0  0  0  0  0  0  0
   -3.3516   -0.1746    0.1439 H   0  0  0  0  0  0  0  0  0  0  0  0
   -2.7510    0.6188    1.6017 H   0  0  0  0  0  0  0  0  0  0  0  0
   -1.5197    0.8967   -1.1938 H   0  0  0  0  0  0  0  0  0  0  0  0
   -0.9193    1.6901    0.2639 H   0  0  0  0  0  0  0  0  0  0  0  0
   -1.1231   -1.3423   -0.1385 H   0  0  0  0  0  0  0  0  0  0  0  0
   -0.5217   -0.5488    1.3191 H   0  0  0  0  0  0  0  0  0  0  0  0
    0.7038   -0.2702   -1.4771 H   0  0  0  0  0  0  0  0  0  0  0  0
    1.2984    0.5299   -0.0206 H   0  0  0  0  0  0  0  0  0  0  0  0
    1.0785   -2.5031   -0.4060 H   0  0  0  0  0  0  0  0  0  0  0  0
    1.7106   -1.7130    1.0377 H   0  0  0  0  0  0  0  0  0  0  0  0
    3.4609   -2.5896   -0.5668 H   0  0  0  0  0  0  0  0  0  0  0  0
    2.9117   -1.4371   -1.7781 H   0  0  0  0  0  0  0  0  0  0  0  0
    5.2544    0.9747    0.8031 H   0  0  0  0  0  0  0  0  0  0  0  0
  1  2  1  0
  2  3  1  0
  3  4  1  0
  4  5  1  0
  5  6  1  0
  6  7  1  0
  7  8  1  0
  8  9  3  0
  1 10  1  0
  1 11  1  0
  1 12  1  0
  2 13  1  0
  2 14  1  0
  3 15  1  0
  3 16  1  0
  4 17  1  0
  4 18  1  0
  5 19  1  0
  5 20  1  0
  6 21  1  0
  6 22  1  0
  7 23  1  0
  7 24  1  0
  9 25  1  0
M  END
>  <Energy>  (2) 
-0.4212133097480071

>  <Real charge>  (2) 
0

>  <Mult>  (2) 
1

$$$$
mol_198 149
     RDKit          3D

 25 24  0  0  0  0  0  0  0  0999 V2000
   -2.6785    1.5135   -2.6607 C   0  0  0  0  0  0  0  0  0  0  0  0
   -2.2533    0.7316   -1.4281 C   0  0  0  0  0  0  0  0  0  0  0  0
   -0.7666    0.3795   -1.4735 C   0  0  0  0  0  0  0  0  0  0  0  0
   -0.3428   -0.4078   -0.2313 C   0  0  0  0  0  0  0  0  0  0  0  0
    1.1469   -0.7546   -0.2773 C   0  0  0  0  0  0  0  0  0  0  0  0
    1.6025   -1.6513    0.8811 C   0  0  0  0  0  0  0  0  0  0  0  0
    1.4462   -1.0475    2.2784 C   0  0  0  0  0  0  0  0  0  0  0  0
    2.2865    0.1434    2.4717 C   0  0  0  0  0  0  0  0  0  0  0  0
    2.9709    1.1166    2.6344 C   0  0  0  0  0  0  0  0  0  0  0  0
   -2.5068    0.9325   -3.5724 H   0  0  0  0  0  0  0  0  0  0  0  0
   -2.1213    2.4524   -2.7412 H   0  0  0  0  0  0  0  0  0  0  0  0
   -3.7447    1.7548   -2.6073 H   0  0  0  0  0  0  0  0  0  0  0  0
   -2.4680    1.3270   -0.5330 H   0  0  0  0  0  0  0  0  0  0  0  0
   -2.8512   -0.1847   -1.3595 H   0  0  0  0  0  0  0  0  0  0  0  0
   -0.1730    1.2990   -1.5455 H   0  0  0  0  0  0  0  0  0  0  0  0
   -0.5570   -0.2119   -2.3732 H   0  0  0  0  0  0  0  0  0  0  0  0
   -0.5624    0.1887    0.6610 H   0  0  0  0  0  0  0  0  0  0  0  0
   -0.9333   -1.3293   -0.1617 H   0  0  0  0  0  0  0  0  0  0  0  0
    1.7410    0.1666   -0.2972 H   0  0  0  0  0  0  0  0  0  0  0  0
    1.3620   -1.2813   -1.2157 H   0  0  0  0  0  0  0  0  0  0  0  0
    1.0377   -2.5912    0.8426 H   0  0  0  0  0  0  0  0  0  0  0  0
    2.6554   -1.9154    0.7173 H   0  0  0  0  0  0  0  0  0  0  0  0
    1.7339   -1.8051    3.0175 H   0  0  0  0  0  0  0  0  0  0  0  0
    0.3976   -0.8060    2.4803 H   0  0  0  0  0  0  0  0  0  0  0  0
    3.5782    1.9804    2.7782 H   0  0  0  0  0  0  0  0  0  0  0  0
  1  2  1  0
  2  3  1  0
  3  4  1  0
  4  5  1  0
  5  6  1  0
  6  7  1  0
  7  8  1  0
  8  9  3  0
  1 10  1  0
  1 11  1  0
  1 12  1  0
  2 13  1  0
  2 14  1  0
  3 15  1  0
  3 16  1  0
  4 17  1  0
  4 18  1  0
  5 19  1  0
  5 20  1  0
  6 21  1  0
  6 22  1  0
  7 23  1  0
  7 24  1  0
  9 25  1  0
M  END
>  <Energy>  (3) 
0.35970102366856826

>  <Real charge>  (3) 
0

>  <Mult>  (3) 
1

$$$$
mol_198 112
     RDKit          3D

 25 24  0  0  0  0  0  0  0  0999 V2000
   -1.4238    0.1954    3.5608 C   0  0  0  0  0  0  0  0  0  0  0  0
   -1.7609    1.2537    2.5219 C   0  0  0  0  0  0  0  0  0  0  0  0
   -1.6743    0.7454    1.0813 C   0  0  0  0  0  0  0  0  0  0  0  0
   -0.2540    0.3653    0.6566 C   0  0  0  0  0  0  0  0  0  0  0  0
   -0.2056   -0.0337   -0.8201 C   0  0  0  0  0  0  0  0  0  0  0  0
    1.2125   -0.4175   -1.2469 C   0  0  0  0  0  0  0  0  0  0  0  0
    1.2613   -0.8156   -2.7219 C   0  0  0  0  0  0  0  0  0  0  0  0
    2.6262   -1.1835   -3.1266 C   0  0  0  0  0  0  0  0  0  0  0  0
    3.7398   -1.4845   -3.4603 C   0  0  0  0  0  0  0  0  0  0  0  0
   -2.0483   -0.6944    3.4328 H   0  0  0  0  0  0  0  0  0  0  0  0
   -0.3740   -0.1061    3.5009 H   0  0  0  0  0  0  0  0  0  0  0  0
   -1.5977    0.5890    4.5675 H   0  0  0  0  0  0  0  0  0  0  0  0
   -1.0993    2.1178    2.6534 H   0  0  0  0  0  0  0  0  0  0  0  0
   -2.7829    1.6068    2.7042 H   0  0  0  0  0  0  0  0  0  0  0  0
   -2.3416   -0.1159    0.9546 H   0  0  0  0  0  0  0  0  0  0  0  0
   -2.0480    1.5346    0.4171 H   0  0  0  0  0  0  0  0  0  0  0  0
    0.1090   -0.4702    1.2655 H   0  0  0  0  0  0  0  0  0  0  0  0
    0.4206    1.2123    0.8301 H   0  0  0  0  0  0  0  0  0  0  0  0
   -0.8831   -0.8786   -0.9943 H   0  0  0  0  0  0  0  0  0  0  0  0
   -0.5617    0.7996   -1.4380 H   0  0  0  0  0  0  0  0  0  0  0  0
    1.8916    0.4260   -1.0676 H   0  0  0  0  0  0  0  0  0  0  0  0
    1.5714   -1.2486   -0.6263 H   0  0  0  0  0  0  0  0  0  0  0  0
    0.9077    0.0154   -3.3433 H   0  0  0  0  0  0  0  0  0  0  0  0
    0.5869   -1.6611   -2.9014 H   0  0  0  0  0  0  0  0  0  0  0  0
    4.7281   -1.7516   -3.7561 H   0  0  0  0  0  0  0  0  0  0  0  0
  1  2  1  0
  2  3  1  0
  3  4  1  0
  4  5  1  0
  5  6  1  0
  6  7  1  0
  7  8  1  0
  8  9  3  0
  1 10  1  0
  1 11  1  0
  1 12  1  0
  2 13  1  0
  2 14  1  0
  3 15  1  0
  3 16  1  0
  4 17  1  0
  4 18  1  0
  5 19  1  0
  5 20  1  0
  6 21  1  0
  6 22  1  0
  7 23  1  0
  7 24  1  0
  9 25  1  0
M  END
>  <Energy>  (4) 
0.3805332200801097

>  <Real charge>  (4) 
0

>  <Mult>  (4) 
1

$$$$
mol_198 332
     RDKit          3D

 25 24  0  0  0  0  0  0  0  0999 V2000
   -3.1286    1.7840   -0.2643 C   0  0  0  0  0  0  0  0  0  0  0  0
   -3.0399    0.5144    0.5684 C   0  0  0  0  0  0  0  0  0  0  0  0
   -1.6159    0.1729    1.0122 C   0  0  0  0  0  0  0  0  0  0  0  0
   -0.6859   -0.1786   -0.1512 C   0  0  0  0  0  0  0  0  0  0  0  0
    0.6924   -0.6144    0.3534 C   0  0  0  0  0  0  0  0  0  0  0  0
    1.6247   -0.9640   -0.8116 C   0  0  0  0  0  0  0  0  0  0  0  0
    2.9958   -1.4590   -0.3479 C   0  0  0  0  0  0  0  0  0  0  0  0
    3.7992   -0.3886    0.2617 C   0  0  0  0  0  0  0  0  0  0  0  0
    4.4589    0.4827    0.7595 C   0  0  0  0  0  0  0  0  0  0  0  0
   -4.1766    2.0271   -0.4672 H   0  0  0  0  0  0  0  0  0  0  0  0
   -2.6803    2.6320    0.2628 H   0  0  0  0  0  0  0  0  0  0  0  0
   -2.6239    1.6683   -1.2278 H   0  0  0  0  0  0  0  0  0  0  0  0
   -3.6610    0.6412    1.4631 H   0  0  0  0  0  0  0  0  0  0  0  0
   -3.4658   -0.3230    0.0034 H   0  0  0  0  0  0  0  0  0  0  0  0
   -1.6673   -0.6801    1.7003 H   0  0  0  0  0  0  0  0  0  0  0  0
   -1.1969    1.0121    1.5807 H   0  0  0  0  0  0  0  0  0  0  0  0
   -1.1308   -0.9851   -0.7465 H   0  0  0  0  0  0  0  0  0  0  0  0
   -0.5677    0.6872   -0.8123 H   0  0  0  0  0  0  0  0  0  0  0  0
    1.1280    0.1917    0.9553 H   0  0  0  0  0  0  0  0  0  0  0  0
    0.5838   -1.4865    1.0096 H   0  0  0  0  0  0  0  0  0  0  0  0
    1.7416   -0.0912   -1.4665 H   0  0  0  0  0  0  0  0  0  0  0  0
    1.1583   -1.7540   -1.4133 H   0  0  0  0  0  0  0  0  0  0  0  0
    2.8769   -2.2881    0.3589 H   0  0  0  0  0  0  0  0  0  0  0  0
    3.5372   -1.8571   -1.2144 H   0  0  0  0  0  0  0  0  0  0  0  0
    5.0438    1.2562    1.2013 H   0  0  0  0  0  0  0  0  0  0  0  0
  1  2  1  0
  2  3  1  0
  3  4  1  0
  4  5  1  0
  5  6  1  0
  6  7  1  0
  7  8  1  0
  8  9  3  0
  1 10  1  0
  1 11  1  0
  1 12  1  0
  2 13  1  0
  2 14  1  0
  3 15  1  0
  3 16  1  0
  4 17  1  0
  4 18  1  0
  5 19  1  0
  5 20  1  0
  6 21  1  0
  6 22  1  0
  7 23  1  0
  7 24  1  0
  9 25  1  0
M  END
>  <Energy>  (5) 
0.40042950114719833

>  <Real charge>  (5) 
0

>  <Mult>  (5) 
1

$$$$
mol_198 164
     RDKit          3D

 25 24  0  0  0  0  0  0  0  0999 V2000
   -3.6785    0.2207   -0.5454 C   0  0  0  0  0  0  0  0  0  0  0  0
   -2.8100    1.1855    0.2470 C   0  0  0  0  0  0  0  0  0  0  0  0
   -1.5298    0.5489    0.7921 C   0  0  0  0  0  0  0  0  0  0  0  0
   -0.5539    0.1150   -0.3040 C   0  0  0  0  0  0  0  0  0  0  0  0
    0.7514   -0.4159    0.2946 C   0  0  0  0  0  0  0  0  0  0  0  0
    1.7273   -0.8543   -0.8028 C   0  0  0  0  0  0  0  0  0  0  0  0
    3.0238   -1.4438   -0.2448 C   0  0  0  0  0  0  0  0  0  0  0  0
    3.8662   -0.4272    0.4032 C   0  0  0  0  0  0  0  0  0  0  0  0
    4.5574    0.3998    0.9326 C   0  0  0  0  0  0  0  0  0  0  0  0
   -3.9174   -0.6692    0.0453 H   0  0  0  0  0  0  0  0  0  0  0  0
   -3.1856   -0.0977   -1.4685 H   0  0  0  0  0  0  0  0  0  0  0  0
   -4.6200    0.7053   -0.8235 H   0  0  0  0  0  0  0  0  0  0  0  0
   -3.3953    1.5661    1.0926 H   0  0  0  0  0  0  0  0  0  0  0  0
   -2.5598    2.0498   -0.3792 H   0  0  0  0  0  0  0  0  0  0  0  0
   -1.0351    1.2798    1.4438 H   0  0  0  0  0  0  0  0  0  0  0  0
   -1.7864   -0.3121    1.4213 H   0  0  0  0  0  0  0  0  0  0  0  0
   -1.0084   -0.6666   -0.9231 H   0  0  0  0  0  0  0  0  0  0  0  0
   -0.3365    0.9660   -0.9607 H   0  0  0  0  0  0  0  0  0  0  0  0
    0.5332   -1.2662    0.9523 H   0  0  0  0  0  0  0  0  0  0  0  0
    1.2089    0.3640    0.9144 H   0  0  0  0  0  0  0  0  0  0  0  0
    1.2415   -1.6167   -1.4245 H   0  0  0  0  0  0  0  0  0  0  0  0
    1.9523   -0.0037   -1.4587 H   0  0  0  0  0  0  0  0  0  0  0  0
    3.5876   -1.8962   -1.0693 H   0  0  0  0  0  0  0  0  0  0  0  0
    2.7966   -2.2496    0.4626 H   0  0  0  0  0  0  0  0  0  0  0  0
    5.1704    1.1341    1.4025 H   0  0  0  0  0  0  0  0  0  0  0  0
  1  2  1  0
  2  3  1  0
  3  4  1  0
  4  5  1  0
  5  6  1  0
  6  7  1  0
  7  8  1  0
  8  9  3  0
  1 10  1  0
  1 11  1  0
  1 12  1  0
  2 13  1  0
  2 14  1  0
  3 15  1  0
  3 16  1  0
  4 17  1  0
  4 18  1  0
  5 19  1  0
  5 20  1  0
  6 21  1  0
  6 22  1  0
  7 23  1  0
  7 24  1  0
  9 25  1  0
M  END
>  <Energy>  (6) 
0.4041466696992291

>  <Real charge>  (6) 
0

>  <Mult>  (6) 
1

$$$$
mol_198 224
     RDKit          3D

 25 24  0  0  0  0  0  0  0  0999 V2000
   -2.8033   -0.2684   -2.6571 C   0  0  0  0  0  0  0  0  0  0  0  0
   -1.9928   -1.1720   -1.7414 C   0  0  0  0  0  0  0  0  0  0  0  0
   -0.9051   -0.3908   -1.0028 C   0  0  0  0  0  0  0  0  0  0  0  0
   -0.0961   -1.3056   -0.0807 C   0  0  0  0  0  0  0  0  0  0  0  0
    1.0809   -0.5979    0.5984 C   0  0  0  0  0  0  0  0  0  0  0  0
    0.6460    0.4893    1.5881 C   0  0  0  0  0  0  0  0  0  0  0  0
    1.8186    1.0699    2.3822 C   0  0  0  0  0  0  0  0  0  0  0  0
    2.7201    1.8712    1.5406 C   0  0  0  0  0  0  0  0  0  0  0  0
    3.4581    2.5269    0.8569 C   0  0  0  0  0  0  0  0  0  0  0  0
   -3.2990    0.5243   -2.0877 H   0  0  0  0  0  0  0  0  0  0  0  0
   -2.1641    0.1992   -3.4128 H   0  0  0  0  0  0  0  0  0  0  0  0
   -3.5742   -0.8473   -3.1753 H   0  0  0  0  0  0  0  0  0  0  0  0
   -1.5381   -1.9719   -2.3373 H   0  0  0  0  0  0  0  0  0  0  0  0
   -2.6654   -1.6479   -1.0183 H   0  0  0  0  0  0  0  0  0  0  0  0
   -0.2357    0.0835   -1.7305 H   0  0  0  0  0  0  0  0  0  0  0  0
   -1.3734    0.4108   -0.4208 H   0  0  0  0  0  0  0  0  0  0  0  0
   -0.7542   -1.7396    0.6818 H   0  0  0  0  0  0  0  0  0  0  0  0
    0.3022   -2.1430   -0.6670 H   0  0  0  0  0  0  0  0  0  0  0  0
    1.6692   -1.3535    1.1338 H   0  0  0  0  0  0  0  0  0  0  0  0
    1.7376   -0.1713   -0.1689 H   0  0  0  0  0  0  0  0  0  0  0  0
   -0.0706    0.0574    2.2975 H   0  0  0  0  0  0  0  0  0  0  0  0
    0.1272    1.2971    1.0588 H   0  0  0  0  0  0  0  0  0  0  0  0
    2.3783    0.2639    2.8705 H   0  0  0  0  0  0  0  0  0  0  0  0
    1.4208    1.7072    3.1808 H   0  0  0  0  0  0  0  0  0  0  0  0
    4.1129    3.1085    0.2497 H   0  0  0  0  0  0  0  0  0  0  0  0
  1  2  1  0
  2  3  1  0
  3  4  1  0
  4  5  1  0
  5  6  1  0
  6  7  1  0
  7  8  1  0
  8  9  3  0
  1 10  1  0
  1 11  1  0
  1 12  1  0
  2 13  1  0
  2 14  1  0
  3 15  1  0
  3 16  1  0
  4 17  1  0
  4 18  1  0
  5 19  1  0
  5 20  1  0
  6 21  1  0
  6 22  1  0
  7 23  1  0
  7 24  1  0
  9 25  1  0
M  END
>  <Energy>  (7) 
0.415215049235369

>  <Real charge>  (7) 
0

>  <Mult>  (7) 
1

$$$$
mol_198 336
     RDKit          3D

 25 24  0  0  0  0  0  0  0  0999 V2000
   -1.9418   -0.6405    3.6713 C   0  0  0  0  0  0  0  0  0  0  0  0
   -1.5199    0.1224    2.4257 C   0  0  0  0  0  0  0  0  0  0  0  0
   -0.7735   -0.7793    1.4427 C   0  0  0  0  0  0  0  0  0  0  0  0
   -0.3510   -0.0078    0.1902 C   0  0  0  0  0  0  0  0  0  0  0  0
    0.3992   -0.9120   -0.7902 C   0  0  0  0  0  0  0  0  0  0  0  0
    0.7471   -0.2205   -2.1117 C   0  0  0  0  0  0  0  0  0  0  0  0
    1.7510    0.9225   -1.9546 C   0  0  0  0  0  0  0  0  0  0  0  0
    2.1396    1.4670   -3.2650 C   0  0  0  0  0  0  0  0  0  0  0  0
    2.4588    1.9139   -4.3329 C   0  0  0  0  0  0  0  0  0  0  0  0
   -1.0714   -1.0476    4.1956 H   0  0  0  0  0  0  0  0  0  0  0  0
   -2.6087   -1.4702    3.4161 H   0  0  0  0  0  0  0  0  0  0  0  0
   -2.4736    0.0231    4.3603 H   0  0  0  0  0  0  0  0  0  0  0  0
   -2.4097    0.5433    1.9432 H   0  0  0  0  0  0  0  0  0  0  0  0
   -0.8810    0.9636    2.7186 H   0  0  0  0  0  0  0  0  0  0  0  0
   -1.4157   -1.6213    1.1570 H   0  0  0  0  0  0  0  0  0  0  0  0
    0.1137   -1.2005    1.9311 H   0  0  0  0  0  0  0  0  0  0  0  0
    0.2843    0.8343    0.4863 H   0  0  0  0  0  0  0  0  0  0  0  0
   -1.2386    0.4099   -0.3001 H   0  0  0  0  0  0  0  0  0  0  0  0
   -0.2221   -1.7875   -1.0167 H   0  0  0  0  0  0  0  0  0  0  0  0
    1.3156   -1.2891   -0.3201 H   0  0  0  0  0  0  0  0  0  0  0  0
    1.1619   -0.9754   -2.7928 H   0  0  0  0  0  0  0  0  0  0  0  0
   -0.1705    0.1502   -2.5863 H   0  0  0  0  0  0  0  0  0  0  0  0
    2.6441    0.5639   -1.4300 H   0  0  0  0  0  0  0  0  0  0  0  0
    1.3205    1.7272   -1.3491 H   0  0  0  0  0  0  0  0  0  0  0  0
    2.7419    2.3104   -5.2807 H   0  0  0  0  0  0  0  0  0  0  0  0
  1  2  1  0
  2  3  1  0
  3  4  1  0
  4  5  1  0
  5  6  1  0
  6  7  1  0
  7  8  1  0
  8  9  3  0
  1 10  1  0
  1 11  1  0
  1 12  1  0
  2 13  1  0
  2 14  1  0
  3 15  1  0
  3 16  1  0
  4 17  1  0
  4 18  1  0
  5 19  1  0
  5 20  1  0
  6 21  1  0
  6 22  1  0
  7 23  1  0
  7 24  1  0
  9 25  1  0
M  END
>  <Energy>  (8) 
0.42196659317545127

>  <Real charge>  (8) 
0

>  <Mult>  (8) 
1

$$$$
mol_198 126
     RDKit          3D

 25 24  0  0  0  0  0  0  0  0999 V2000
   -3.9778   -0.3878    0.7283 C   0  0  0  0  0  0  0  0  0  0  0  0
   -2.5386   -0.5951    0.2811 C   0  0  0  0  0  0  0  0  0  0  0  0
   -1.9652    0.6714   -0.3555 C   0  0  0  0  0  0  0  0  0  0  0  0
   -0.5567    0.4821   -0.9260 C   0  0  0  0  0  0  0  0  0  0  0  0
    0.5005    0.2015    0.1442 C   0  0  0  0  0  0  0  0  0  0  0  0
    1.9026    0.1350   -0.4663 C   0  0  0  0  0  0  0  0  0  0  0  0
    2.9610   -0.1490    0.5995 C   0  0  0  0  0  0  0  0  0  0  0  0
    4.3056   -0.2112    0.0077 C   0  0  0  0  0  0  0  0  0  0  0  0
    5.4050   -0.2627   -0.4726 C   0  0  0  0  0  0  0  0  0  0  0  0
   -4.6196   -0.1307   -0.1204 H   0  0  0  0  0  0  0  0  0  0  0  0
   -4.3685   -1.3031    1.1840 H   0  0  0  0  0  0  0  0  0  0  0  0
   -4.0466    0.4164    1.4678 H   0  0  0  0  0  0  0  0  0  0  0  0
   -2.5012   -1.4231   -0.4361 H   0  0  0  0  0  0  0  0  0  0  0  0
   -1.9415   -0.8887    1.1509 H   0  0  0  0  0  0  0  0  0  0  0  0
   -2.6241    0.9908   -1.1727 H   0  0  0  0  0  0  0  0  0  0  0  0
   -1.9580    1.4854    0.3796 H   0  0  0  0  0  0  0  0  0  0  0  0
   -0.2830    1.3957   -1.4684 H   0  0  0  0  0  0  0  0  0  0  0  0
   -0.5643   -0.3311   -1.6619 H   0  0  0  0  0  0  0  0  0  0  0  0
    0.4697    0.9888    0.9070 H   0  0  0  0  0  0  0  0  0  0  0  0
    0.2841   -0.7479    0.6464 H   0  0  0  0  0  0  0  0  0  0  0  0
    1.9317   -0.6470   -1.2361 H   0  0  0  0  0  0  0  0  0  0  0  0
    2.1301    1.0829   -0.9709 H   0  0  0  0  0  0  0  0  0  0  0  0
    2.7386   -1.0981    1.1009 H   0  0  0  0  0  0  0  0  0  0  0  0
    2.9356    0.6338    1.3666 H   0  0  0  0  0  0  0  0  0  0  0  0
    6.3806   -0.3084   -0.8990 H   0  0  0  0  0  0  0  0  0  0  0  0
  1  2  1  0
  2  3  1  0
  3  4  1  0
  4  5  1  0
  5  6  1  0
  6  7  1  0
  7  8  1  0
  8  9  3  0
  1 10  1  0
  1 11  1  0
  1 12  1  0
  2 13  1  0
  2 14  1  0
  3 15  1  0
  3 16  1  0
  4 17  1  0
  4 18  1  0
  5 19  1  0
  5 20  1  0
  6 21  1  0
  6 22  1  0
  7 23  1  0
  7 24  1  0
  9 25  1  0
M  END
>  <Energy>  (9) 
0.43190494049781436

>  <Real charge>  (9) 
0

>  <Mult>  (9) 
1

$$$$
mol_198 271
     RDKit          3D

 25 24  0  0  0  0  0  0  0  0999 V2000
    3.6343   -1.0967   -0.5989 C   0  0  0  0  0  0  0  0  0  0  0  0
    2.8953   -0.2199    0.3995 C   0  0  0  0  0  0  0  0  0  0  0  0
    1.4509    0.0308   -0.0363 C   0  0  0  0  0  0  0  0  0  0  0  0
    0.7125    0.9106    0.9749 C   0  0  0  0  0  0  0  0  0  0  0  0
   -0.7040    1.2895    0.5330 C   0  0  0  0  0  0  0  0  0  0  0  0
   -1.6569    0.0946    0.4524 C   0  0  0  0  0  0  0  0  0  0  0  0
   -3.0811    0.5434    0.1210 C   0  0  0  0  0  0  0  0  0  0  0  0
   -3.9939   -0.6066    0.0405 C   0  0  0  0  0  0  0  0  0  0  0  0
   -4.7418   -1.5438   -0.0260 C   0  0  0  0  0  0  0  0  0  0  0  0
    3.1485   -2.0725   -0.6990 H   0  0  0  0  0  0  0  0  0  0  0  0
    3.6662   -0.6255   -1.5865 H   0  0  0  0  0  0  0  0  0  0  0  0
    4.6644   -1.2624   -0.2682 H   0  0  0  0  0  0  0  0  0  0  0  0
    3.4254    0.7344    0.5003 H   0  0  0  0  0  0  0  0  0  0  0  0
    2.9087   -0.7043    1.3827 H   0  0  0  0  0  0  0  0  0  0  0  0
    1.4433    0.5151   -1.0202 H   0  0  0  0  0  0  0  0  0  0  0  0
    0.9378   -0.9313   -0.1432 H   0  0  0  0  0  0  0  0  0  0  0  0
    1.2815    1.8365    1.1260 H   0  0  0  0  0  0  0  0  0  0  0  0
    0.6714    0.4038    1.9468 H   0  0  0  0  0  0  0  0  0  0  0  0
   -1.1021    2.0164    1.2519 H   0  0  0  0  0  0  0  0  0  0  0  0
   -0.6627    1.7968   -0.4386 H   0  0  0  0  0  0  0  0  0  0  0  0
   -1.3131   -0.6104   -0.3137 H   0  0  0  0  0  0  0  0  0  0  0  0
   -1.6516   -0.4461    1.4074 H   0  0  0  0  0  0  0  0  0  0  0  0
   -3.0880    1.0829   -0.8333 H   0  0  0  0  0  0  0  0  0  0  0  0
   -3.4397    1.2404    0.8874 H   0  0  0  0  0  0  0  0  0  0  0  0
   -5.4053   -2.3756   -0.0850 H   0  0  0  0  0  0  0  0  0  0  0  0
  1  2  1  0
  2  3  1  0
  3  4  1  0
  4  5  1  0
  5  6  1  0
  6  7  1  0
  7  8  1  0
  8  9  3  0
  1 10  1  0
  1 11  1  0
  1 12  1  0
  2 13  1  0
  2 14  1  0
  3 15  1  0
  3 16  1  0
  4 17  1  0
  4 18  1  0
  5 19  1  0
  5 20  1  0
  6 21  1  0
  6 22  1  0
  7 23  1  0
  7 24  1  0
  9 25  1  0
M  END
>  <Energy>  (10) 
0.43209100226756925

>  <Real charge>  (10) 
0

>  <Mult>  (10) 
1

$$$$
mol_198 205
     RDKit          3D

 25 24  0  0  0  0  0  0  0  0999 V2000
    3.6809   -1.0310   -0.4900 C   0  0  0  0  0  0  0  0  0  0  0  0
    2.1655   -1.1236   -0.3947 C   0  0  0  0  0  0  0  0  0  0  0  0
    1.4874   -0.0396   -1.2334 C   0  0  0  0  0  0  0  0  0  0  0  0
   -0.0391   -0.1587   -1.2632 C   0  0  0  0  0  0  0  0  0  0  0  0
   -0.6952    0.0836    0.0986 C   0  0  0  0  0  0  0  0  0  0  0  0
   -2.2244    0.0664   -0.0146 C   0  0  0  0  0  0  0  0  0  0  0  0
   -2.9226    0.2437    1.3350 C   0  0  0  0  0  0  0  0  0  0  0  0
   -2.7562    1.6011    1.8758 C   0  0  0  0  0  0  0  0  0  0  0  0
   -2.6234    2.7086    2.3207 C   0  0  0  0  0  0  0  0  0  0  0  0
    4.1473   -1.8117    0.1192 H   0  0  0  0  0  0  0  0  0  0  0  0
    4.0378   -0.0606   -0.1303 H   0  0  0  0  0  0  0  0  0  0  0  0
    4.0181   -1.1602   -1.5234 H   0  0  0  0  0  0  0  0  0  0  0  0
    1.8753   -1.0293    0.6571 H   0  0  0  0  0  0  0  0  0  0  0  0
    1.8442   -2.1145   -0.7353 H   0  0  0  0  0  0  0  0  0  0  0  0
    1.7718    0.9512   -0.8587 H   0  0  0  0  0  0  0  0  0  0  0  0
    1.8548   -0.1035   -2.2652 H   0  0  0  0  0  0  0  0  0  0  0  0
   -0.4244    0.5757   -1.9815 H   0  0  0  0  0  0  0  0  0  0  0  0
   -0.3231   -1.1485   -1.6409 H   0  0  0  0  0  0  0  0  0  0  0  0
   -0.3814   -0.6895    0.8087 H   0  0  0  0  0  0  0  0  0  0  0  0
   -0.3589    1.0481    0.4961 H   0  0  0  0  0  0  0  0  0  0  0  0
   -2.5526    0.8469   -0.7127 H   0  0  0  0  0  0  0  0  0  0  0  0
   -2.5366   -0.8951   -0.4410 H   0  0  0  0  0  0  0  0  0  0  0  0
   -3.9929    0.0436    1.2059 H   0  0  0  0  0  0  0  0  0  0  0  0
   -2.5471   -0.4949    2.0525 H   0  0  0  0  0  0  0  0  0  0  0  0
   -2.5050    3.6915    2.7152 H   0  0  0  0  0  0  0  0  0  0  0  0
  1  2  1  0
  2  3  1  0
  3  4  1  0
  4  5  1  0
  5  6  1  0
  6  7  1  0
  7  8  1  0
  8  9  3  0
  1 10  1  0
  1 11  1  0
  1 12  1  0
  2 13  1  0
  2 14  1  0
  3 15  1  0
  3 16  1  0
  4 17  1  0
  4 18  1  0
  5 19  1  0
  5 20  1  0
  6 21  1  0
  6 22  1  0
  7 23  1  0
  7 24  1  0
  9 25  1  0
M  END
>  <Energy>  (11) 
0.4430524013266406

>  <Real charge>  (11) 
0

>  <Mult>  (11) 
1

$$$$
mol_198 83
     RDKit          3D

 25 24  0  0  0  0  0  0  0  0999 V2000
    3.4588    0.0912    1.3849 C   0  0  0  0  0  0  0  0  0  0  0  0
    2.1576    0.3867    0.6544 C   0  0  0  0  0  0  0  0  0  0  0  0
    1.8825   -0.6504   -0.4352 C   0  0  0  0  0  0  0  0  0  0  0  0
    0.6433   -0.3346   -1.2778 C   0  0  0  0  0  0  0  0  0  0  0  0
   -0.6652   -0.4058   -0.4864 C   0  0  0  0  0  0  0  0  0  0  0  0
   -1.8768   -0.1944   -1.4023 C   0  0  0  0  0  0  0  0  0  0  0  0
   -3.2099   -0.3085   -0.6606 C   0  0  0  0  0  0  0  0  0  0  0  0
   -3.4348    0.8158    0.2605 C   0  0  0  0  0  0  0  0  0  0  0  0
   -3.6225    1.7324    1.0133 C   0  0  0  0  0  0  0  0  0  0  0  0
    3.6357    0.8413    2.1621 H   0  0  0  0  0  0  0  0  0  0  0  0
    3.4250   -0.8928    1.8634 H   0  0  0  0  0  0  0  0  0  0  0  0
    4.3091    0.1098    0.6957 H   0  0  0  0  0  0  0  0  0  0  0  0
    2.2138    1.3876    0.2112 H   0  0  0  0  0  0  0  0  0  0  0  0
    1.3418    0.3980    1.3850 H   0  0  0  0  0  0  0  0  0  0  0  0
    1.7765   -1.6441    0.0170 H   0  0  0  0  0  0  0  0  0  0  0  0
    2.7482   -0.7009   -1.1074 H   0  0  0  0  0  0  0  0  0  0  0  0
    0.6012   -1.0546   -2.1046 H   0  0  0  0  0  0  0  0  0  0  0  0
    0.7493    0.6590   -1.7298 H   0  0  0  0  0  0  0  0  0  0  0  0
   -0.7441   -1.3830    0.0050 H   0  0  0  0  0  0  0  0  0  0  0  0
   -0.6637    0.3557    0.3004 H   0  0  0  0  0  0  0  0  0  0  0  0
   -1.8021    0.7839   -1.8939 H   0  0  0  0  0  0  0  0  0  0  0  0
   -1.8582   -0.9524   -2.1952 H   0  0  0  0  0  0  0  0  0  0  0  0
   -3.2556   -1.2571   -0.1134 H   0  0  0  0  0  0  0  0  0  0  0  0
   -4.0215   -0.3289   -1.3976 H   0  0  0  0  0  0  0  0  0  0  0  0
   -3.7884    2.5459    1.6813 H   0  0  0  0  0  0  0  0  0  0  0  0
  1  2  1  0
  2  3  1  0
  3  4  1  0
  4  5  1  0
  5  6  1  0
  6  7  1  0
  7  8  1  0
  8  9  3  0
  1 10  1  0
  1 11  1  0
  1 12  1  0
  2 13  1  0
  2 14  1  0
  3 15  1  0
  3 16  1  0
  4 17  1  0
  4 18  1  0
  5 19  1  0
  5 20  1  0
  6 21  1  0
  6 22  1  0
  7 23  1  0
  7 24  1  0
  9 25  1  0
M  END
>  <Energy>  (12) 
0.44348472130873207

>  <Real charge>  (12) 
0

>  <Mult>  (12) 
1

$$$$
mol_198 348
     RDKit          3D

 25 24  0  0  0  0  0  0  0  0999 V2000
   -3.9920   -0.0177   -0.1227 C   0  0  0  0  0  0  0  0  0  0  0  0
   -2.7686    0.8836   -0.0730 C   0  0  0  0  0  0  0  0  0  0  0  0
   -1.4922    0.0822    0.1870 C   0  0  0  0  0  0  0  0  0  0  0  0
   -0.2649    0.9953    0.2318 C   0  0  0  0  0  0  0  0  0  0  0  0
    1.0278    0.2637    0.6072 C   0  0  0  0  0  0  0  0  0  0  0  0
    1.4781   -0.7547   -0.4468 C   0  0  0  0  0  0  0  0  0  0  0  0
    2.8055   -1.4282   -0.0903 C   0  0  0  0  0  0  0  0  0  0  0  0
    3.9470   -0.5072   -0.1990 C   0  0  0  0  0  0  0  0  0  0  0  0
    4.8821    0.2411   -0.2875 C   0  0  0  0  0  0  0  0  0  0  0  0
   -4.8926    0.5757   -0.3088 H   0  0  0  0  0  0  0  0  0  0  0  0
   -3.9015   -0.7582   -0.9238 H   0  0  0  0  0  0  0  0  0  0  0  0
   -4.1256   -0.5502    0.8243 H   0  0  0  0  0  0  0  0  0  0  0  0
   -2.9061    1.6322    0.7160 H   0  0  0  0  0  0  0  0  0  0  0  0
   -2.6814    1.4247   -1.0224 H   0  0  0  0  0  0  0  0  0  0  0  0
   -1.5847   -0.4570    1.1375 H   0  0  0  0  0  0  0  0  0  0  0  0
   -1.3745   -0.6680   -0.6027 H   0  0  0  0  0  0  0  0  0  0  0  0
   -0.4355    1.7864    0.9727 H   0  0  0  0  0  0  0  0  0  0  0  0
   -0.1375    1.4932   -0.7371 H   0  0  0  0  0  0  0  0  0  0  0  0
    1.8110    1.0184    0.7464 H   0  0  0  0  0  0  0  0  0  0  0  0
    0.8982   -0.2379    1.5739 H   0  0  0  0  0  0  0  0  0  0  0  0
    1.5554   -0.2655   -1.4258 H   0  0  0  0  0  0  0  0  0  0  0  0
    0.7192   -1.5399   -0.5389 H   0  0  0  0  0  0  0  0  0  0  0  0
    2.7550   -1.8467    0.9215 H   0  0  0  0  0  0  0  0  0  0  0  0
    2.9666   -2.2706   -0.7736 H   0  0  0  0  0  0  0  0  0  0  0  0
    5.7115    0.9055   -0.3660 H   0  0  0  0  0  0  0  0  0  0  0  0
  1  2  1  0
  2  3  1  0
  3  4  1  0
  4  5  1  0
  5  6  1  0
  6  7  1  0
  7  8  1  0
  8  9  3  0
  1 10  1  0
  1 11  1  0
  1 12  1  0
  2 13  1  0
  2 14  1  0
  3 15  1  0
  3 16  1  0
  4 17  1  0
  4 18  1  0
  5 19  1  0
  5 20  1  0
  6 21  1  0
  6 22  1  0
  7 23  1  0
  7 24  1  0
  9 25  1  0
M  END
>  <Energy>  (13) 
0.538876840372871

>  <Real charge>  (13) 
0

>  <Mult>  (13) 
1

$$$$
