mol_1003 79
     RDKit          3D

 28 29  0  0  0  0  0  0  0  0999 V2000
   -2.5258    0.6899   -0.3271 C   0  0  0  0  0  0  0  0  0  0  0  0
   -2.3996   -0.7626   -0.7772 C   0  0  0  0  0  0  0  0  0  0  0  0
   -1.2582   -1.4817   -0.0610 C   0  0  0  0  0  0  0  0  0  0  0  0
    0.0679   -0.7277   -0.2242 C   0  0  0  0  0  0  0  0  0  0  0  0
    1.2061   -1.4453    0.5127 C   0  0  0  0  0  0  0  0  0  0  0  0
    2.5258   -0.6899    0.3695 C   0  0  0  0  0  0  0  0  0  0  0  0
    2.3996    0.7626    0.8196 C   0  0  0  0  0  0  0  0  0  0  0  0
    1.2582    1.4817    0.1034 C   0  0  0  0  0  0  0  0  0  0  0  0
   -0.0679    0.7277    0.2666 C   0  0  0  0  0  0  0  0  0  0  0  0
   -1.2061    1.4453   -0.4703 C   0  0  0  0  0  0  0  0  0  0  0  0
   -3.3028    1.1914   -0.9150 H   0  0  0  0  0  0  0  0  0  0  0  0
   -2.8498    0.7192    0.7206 H   0  0  0  0  0  0  0  0  0  0  0  0
   -2.2267   -0.7941   -1.8600 H   0  0  0  0  0  0  0  0  0  0  0  0
   -3.3419   -1.2896   -0.5896 H   0  0  0  0  0  0  0  0  0  0  0  0
   -1.5041   -1.5812    1.0038 H   0  0  0  0  0  0  0  0  0  0  0  0
   -1.1632   -2.4978   -0.4620 H   0  0  0  0  0  0  0  0  0  0  0  0
    0.3170   -0.7130   -1.2953 H   0  0  0  0  0  0  0  0  0  0  0  0
    0.9592   -1.5448    1.5773 H   0  0  0  0  0  0  0  0  0  0  0  0
    1.3265   -2.4610    0.1177 H   0  0  0  0  0  0  0  0  0  0  0  0
    3.3028   -1.1914    0.9574 H   0  0  0  0  0  0  0  0  0  0  0  0
    2.8498   -0.7192   -0.6782 H   0  0  0  0  0  0  0  0  0  0  0  0
    3.3419    1.2896    0.6320 H   0  0  0  0  0  0  0  0  0  0  0  0
    2.2267    0.7941    1.9024 H   0  0  0  0  0  0  0  0  0  0  0  0
    1.5041    1.5812   -0.9614 H   0  0  0  0  0  0  0  0  0  0  0  0
    1.1632    2.4978    0.5044 H   0  0  0  0  0  0  0  0  0  0  0  0
   -0.3170    0.7130    1.3377 H   0  0  0  0  0  0  0  0  0  0  0  0
   -0.9592    1.5448   -1.5349 H   0  0  0  0  0  0  0  0  0  0  0  0
   -1.3265    2.4610   -0.0752 H   0  0  0  0  0  0  0  0  0  0  0  0
  1  2  1  0
  2  3  1  0
  3  4  1  0
  4  5  1  0
  5  6  1  0
  6  7  1  0
  7  8  1  0
  8  9  1  0
  9 10  1  0
 10  1  1  0
  9  4  1  0
  1 11  1  0
  1 12  1  0
  2 13  1  0
  2 14  1  0
  3 15  1  0
  3 16  1  0
  4 17  1  0
  5 18  1  0
  5 19  1  0
  6 20  1  0
  6 21  1  0
  7 22  1  0
  7 23  1  0
  8 24  1  0
  8 25  1  0
  9 26  1  0
 10 27  1  0
 10 28  1  0
M  END
>  <Energy>  (1) 
6.260608412234454

>  <Real charge>  (1) 
0

>  <Mult>  (1) 
1

$$$$
