mol_699 130
     RDKit          3D

 21 20  0  0  0  0  0  0  0  0999 V2000
    2.1355   -0.6333   -0.4995 C   0  0  0  0  0  0  0  0  0  0  0  0
    1.2991    0.4019    0.2463 C   0  0  0  0  0  0  0  0  0  0  0  0
    2.0823    0.9786    1.4231 C   0  0  0  0  0  0  0  0  0  0  0  0
   -0.2381   -0.3612    0.8905 S   0  0  0  0  0  0  0  0  0  0  0  0
   -1.2726   -0.3616   -0.6228 C   0  0  0  0  0  0  0  0  0  0  0  0
   -1.8819    1.0182   -0.8516 C   0  0  0  0  0  0  0  0  0  0  0  0
   -2.3681   -1.4123   -0.4590 C   0  0  0  0  0  0  0  0  0  0  0  0
    1.6065   -1.0353   -1.3692 H   0  0  0  0  0  0  0  0  0  0  0  0
    2.4170   -1.4717    0.1478 H   0  0  0  0  0  0  0  0  0  0  0  0
    3.0618   -0.1785   -0.8682 H   0  0  0  0  0  0  0  0  0  0  0  0
    1.0412    1.2228   -0.4297 H   0  0  0  0  0  0  0  0  0  0  0  0
    3.0001    1.4616    1.0694 H   0  0  0  0  0  0  0  0  0  0  0  0
    1.4998    1.7391    1.9553 H   0  0  0  0  0  0  0  0  0  0  0  0
    2.3746    0.2032    2.1405 H   0  0  0  0  0  0  0  0  0  0  0  0
   -0.6566   -0.6392   -1.4835 H   0  0  0  0  0  0  0  0  0  0  0  0
   -2.5137    1.0103   -1.7470 H   0  0  0  0  0  0  0  0  0  0  0  0
   -2.5104    1.3301   -0.0097 H   0  0  0  0  0  0  0  0  0  0  0  0
   -1.1141    1.7825   -1.0069 H   0  0  0  0  0  0  0  0  0  0  0  0
   -3.0253   -1.1905    0.3897 H   0  0  0  0  0  0  0  0  0  0  0  0
   -2.9941   -1.4526   -1.3575 H   0  0  0  0  0  0  0  0  0  0  0  0
   -1.9433   -2.4120   -0.3144 H   0  0  0  0  0  0  0  0  0  0  0  0
  1  2  1  0
  2  3  1  0
  2  4  1  0
  4  5  1  0
  5  6  1  0
  5  7  1  0
  1  8  1  0
  1  9  1  0
  1 10  1  0
  2 11  1  0
  3 12  1  0
  3 13  1  0
  3 14  1  0
  5 15  1  0
  6 16  1  0
  6 17  1  0
  6 18  1  0
  7 19  1  0
  7 20  1  0
  7 21  1  0
M  END
>  <Energy>  (1) 
8.56228738935294

>  <Real charge>  (1) 
0

>  <Mult>  (1) 
1

$$$$
mol_699 111
     RDKit          3D

 21 20  0  0  0  0  0  0  0  0999 V2000
    2.1602    1.2648    0.2774 C   0  0  0  0  0  0  0  0  0  0  0  0
    1.1569    0.1173    0.1993 C   0  0  0  0  0  0  0  0  0  0  0  0
    1.8425   -1.2205    0.4596 C   0  0  0  0  0  0  0  0  0  0  0  0
   -0.1434    0.3926    1.4630 S   0  0  0  0  0  0  0  0  0  0  0  0
   -1.6843    0.0804    0.5134 C   0  0  0  0  0  0  0  0  0  0  0  0
   -1.9232    1.1638   -0.5340 C   0  0  0  0  0  0  0  0  0  0  0  0
   -1.7284   -1.3188   -0.0905 C   0  0  0  0  0  0  0  0  0  0  0  0
    1.6788    2.2284    0.0763 H   0  0  0  0  0  0  0  0  0  0  0  0
    2.6463    1.3195    1.2582 H   0  0  0  0  0  0  0  0  0  0  0  0
    2.9484    1.1323   -0.4723 H   0  0  0  0  0  0  0  0  0  0  0  0
    0.7246    0.1103   -0.8043 H   0  0  0  0  0  0  0  0  0  0  0  0
    2.3225   -1.2485    1.4445 H   0  0  0  0  0  0  0  0  0  0  0  0
    1.1365   -2.0552    0.3990 H   0  0  0  0  0  0  0  0  0  0  0  0
    2.6219   -1.3995   -0.2896 H   0  0  0  0  0  0  0  0  0  0  0  0
   -2.4936    0.1488    1.2498 H   0  0  0  0  0  0  0  0  0  0  0  0
   -2.9035    1.0244   -1.0036 H   0  0  0  0  0  0  0  0  0  0  0  0
   -1.9190    2.1620   -0.0823 H   0  0  0  0  0  0  0  0  0  0  0  0
   -1.1772    1.1456   -1.3341 H   0  0  0  0  0  0  0  0  0  0  0  0
   -1.5549   -2.0873    0.6704 H   0  0  0  0  0  0  0  0  0  0  0  0
   -2.7159   -1.5096   -0.5258 H   0  0  0  0  0  0  0  0  0  0  0  0
   -0.9948   -1.4509   -0.8916 H   0  0  0  0  0  0  0  0  0  0  0  0
  1  2  1  0
  2  3  1  0
  2  4  1  0
  4  5  1  0
  5  6  1  0
  5  7  1  0
  1  8  1  0
  1  9  1  0
  1 10  1  0
  2 11  1  0
  3 12  1  0
  3 13  1  0
  3 14  1  0
  5 15  1  0
  6 16  1  0
  6 17  1  0
  6 18  1  0
  7 19  1  0
  7 20  1  0
  7 21  1  0
M  END
>  <Energy>  (2) 
9.21590497467804

>  <Real charge>  (2) 
0

>  <Mult>  (2) 
1

$$$$
mol_699 84
     RDKit          3D

 21 20  0  0  0  0  0  0  0  0999 V2000
    2.4128    1.2203   -0.0987 C   0  0  0  0  0  0  0  0  0  0  0  0
    1.3728    0.1177    0.0767 C   0  0  0  0  0  0  0  0  0  0  0  0
    1.8321   -0.9056    1.1099 C   0  0  0  0  0  0  0  0  0  0  0  0
   -0.2029    0.8755    0.6256 S   0  0  0  0  0  0  0  0  0  0  0  0
   -1.3639    0.1500   -0.5935 C   0  0  0  0  0  0  0  0  0  0  0  0
   -1.5715   -1.3398   -0.3424 C   0  0  0  0  0  0  0  0  0  0  0  0
   -2.6908    0.8997   -0.4981 C   0  0  0  0  0  0  0  0  0  0  0  0
    2.0956    1.9506   -0.8515 H   0  0  0  0  0  0  0  0  0  0  0  0
    2.6073    1.7535    0.8389 H   0  0  0  0  0  0  0  0  0  0  0  0
    3.3640    0.7953   -0.4382 H   0  0  0  0  0  0  0  0  0  0  0  0
    1.2305   -0.3792   -0.8885 H   0  0  0  0  0  0  0  0  0  0  0  0
    1.0959   -1.7054    1.2415 H   0  0  0  0  0  0  0  0  0  0  0  0
    2.0150   -0.4445    2.0873 H   0  0  0  0  0  0  0  0  0  0  0  0
    2.7686   -1.3752    0.7888 H   0  0  0  0  0  0  0  0  0  0  0  0
   -0.9533    0.3037   -1.5975 H   0  0  0  0  0  0  0  0  0  0  0  0
   -0.6467   -1.9077   -0.4824 H   0  0  0  0  0  0  0  0  0  0  0  0
   -2.3046   -1.7462   -1.0483 H   0  0  0  0  0  0  0  0  0  0  0  0
   -1.9458   -1.5341    0.6690 H   0  0  0  0  0  0  0  0  0  0  0  0
   -3.4010    0.5127   -1.2376 H   0  0  0  0  0  0  0  0  0  0  0  0
   -3.1525    0.7901    0.4899 H   0  0  0  0  0  0  0  0  0  0  0  0
   -2.5615    1.9686   -0.7019 H   0  0  0  0  0  0  0  0  0  0  0  0
  1  2  1  0
  2  3  1  0
  2  4  1  0
  4  5  1  0
  5  6  1  0
  5  7  1  0
  1  8  1  0
  1  9  1  0
  1 10  1  0
  2 11  1  0
  3 12  1  0
  3 13  1  0
  3 14  1  0
  5 15  1  0
  6 16  1  0
  6 17  1  0
  6 18  1  0
  7 19  1  0
  7 20  1  0
  7 21  1  0
M  END
>  <Energy>  (3) 
9.325402620255373

>  <Real charge>  (3) 
0

>  <Mult>  (3) 
1

$$$$
