mol_11 42
     RDKit          3D

 13 13  0  0  0  0  0  0  0  0999 V2000
    0.5881    2.4864    0.2156 O   0  0  0  0  0  0  0  0  0  0  0  0
    0.2774    1.3141    0.1045 C   0  0  0  0  0  0  0  0  0  0  0  0
    1.2170    0.1351    0.0694 C   0  0  0  0  0  0  0  0  0  0  0  0
    0.3097   -1.0087   -0.3762 C   0  0  0  0  0  0  0  0  0  0  0  0
   -1.0623   -0.5921    0.1153 C   0  0  0  0  0  0  0  0  0  0  0  0
   -1.0150    0.8353    0.0413 N   0  0  0  0  0  0  0  0  0  0  0  0
    1.6104   -0.0348    1.0761 H   0  0  0  0  0  0  0  0  0  0  0  0
    2.0336    0.3031   -0.6365 H   0  0  0  0  0  0  0  0  0  0  0  0
    0.6254   -1.9806    0.0130 H   0  0  0  0  0  0  0  0  0  0  0  0
    0.3105   -1.0680   -1.4719 H   0  0  0  0  0  0  0  0  0  0  0  0
   -1.2249   -0.8771    1.1596 H   0  0  0  0  0  0  0  0  0  0  0  0
   -1.8753   -0.9760   -0.5055 H   0  0  0  0  0  0  0  0  0  0  0  0
   -1.7946    1.4633    0.1954 H   0  0  0  0  0  0  0  0  0  0  0  0
  1  2  2  0
  2  3  1  0
  3  4  1  0
  4  5  1  0
  5  6  1  0
  6  2  1  0
  3  7  1  0
  3  8  1  0
  4  9  1  0
  4 10  1  0
  5 11  1  0
  5 12  1  0
  6 13  1  0
M  END
>  <Energy>  (1) 
-24.26463852960378

>  <Real charge>  (1) 
0

>  <Mult>  (1) 
1

$$$$
