mol_918 410
     RDKit          3D

 62 66  0  0  0  0  0  0  0  0999 V2000
    4.1376    0.9318    2.3845 C   0  0  0  0  0  0  0  0  0  0  0  0
    3.9696   -0.0847    1.2647 C   0  0  0  0  0  0  0  0  0  0  0  0
    5.3073   -0.7279    0.9085 C   0  0  0  0  0  0  0  0  0  0  0  0
    3.0612   -1.0901    1.6868 O   0  0  0  0  0  0  0  0  0  0  0  0
    2.2334   -1.3940    0.5619 C   0  0  0  0  0  0  0  0  0  0  0  0
    0.7735   -1.3253    0.9998 C   0  0  0  0  0  0  0  0  0  0  0  0
    0.3863    0.1403    0.7593 C   0  0  0  0  0  0  0  0  0  0  0  0
   -1.1233    0.4697    0.8186 C   0  0  0  0  0  0  0  0  0  0  0  0
   -1.7188    0.0260    2.1661 C   0  0  0  0  0  0  0  0  0  0  0  0
   -3.1711    0.4609    2.3110 C   0  0  0  0  0  0  0  0  0  0  0  0
   -3.9818   -0.0663    1.1561 C   0  0  0  0  0  0  0  0  0  0  0  0
   -5.0261   -0.8809    1.3935 C   0  0  0  0  0  0  0  0  0  0  0  0
   -5.8139   -1.4849    0.3017 C   0  0  0  0  0  0  0  0  0  0  0  0
   -6.7677   -2.2168    0.5323 O   0  0  0  0  0  0  0  0  0  0  0  0
   -5.4058   -1.1637   -1.0762 C   0  0  0  0  0  0  0  0  0  0  0  0
   -4.3679   -0.3516   -1.3170 C   0  0  0  0  0  0  0  0  0  0  0  0
   -3.4974    0.3228   -0.2559 C   0  0  0  0  0  0  0  0  0  0  0  0
   -3.7192    1.8418   -0.4509 C   0  0  0  0  0  0  0  0  0  0  0  0
   -1.9593   -0.0708   -0.3822 C   0  0  0  0  0  0  0  0  0  0  0  0
   -1.8963   -1.4472   -0.3320 F   0  0  0  0  0  0  0  0  0  0  0  0
   -1.2671    0.3398   -1.7099 C   0  0  0  0  0  0  0  0  0  0  0  0
   -1.8809   -0.2696   -2.8474 O   0  0  0  0  0  0  0  0  0  0  0  0
    0.2097   -0.0764   -1.7534 C   0  0  0  0  0  0  0  0  0  0  0  0
    1.0697    0.4726   -0.5919 C   0  0  0  0  0  0  0  0  0  0  0  0
    1.2367    1.9978   -0.7460 C   0  0  0  0  0  0  0  0  0  0  0  0
    2.4493   -0.2715   -0.4638 C   0  0  0  0  0  0  0  0  0  0  0  0
    3.4420    0.5811    0.1195 O   0  0  0  0  0  0  0  0  0  0  0  0
    2.9976   -0.8220   -1.7895 C   0  0  0  0  0  0  0  0  0  0  0  0
    2.7546   -1.9667   -2.1860 O   0  0  0  0  0  0  0  0  0  0  0  0
    3.8588    0.1089   -2.6354 C   0  0  0  0  0  0  0  0  0  0  0  0
    4.0645   -0.4162   -3.9405 O   0  0  0  0  0  0  0  0  0  0  0  0
    4.5152    0.4609    3.2982 H   0  0  0  0  0  0  0  0  0  0  0  0
    3.1730    1.3899    2.6321 H   0  0  0  0  0  0  0  0  0  0  0  0
    4.8131    1.7417    2.0901 H   0  0  0  0  0  0  0  0  0  0  0  0
    6.0195    0.0175    0.5395 H   0  0  0  0  0  0  0  0  0  0  0  0
    5.1855   -1.4771    0.1184 H   0  0  0  0  0  0  0  0  0  0  0  0
    5.7406   -1.2435    1.7721 H   0  0  0  0  0  0  0  0  0  0  0  0
    2.4883   -2.4013    0.2193 H   0  0  0  0  0  0  0  0  0  0  0  0
    0.6499   -1.6052    2.0509 H   0  0  0  0  0  0  0  0  0  0  0  0
    0.1763   -2.0074    0.3893 H   0  0  0  0  0  0  0  0  0  0  0  0
    0.8715    0.7331    1.5499 H   0  0  0  0  0  0  0  0  0  0  0  0
   -1.1855    1.5657    0.7922 H   0  0  0  0  0  0  0  0  0  0  0  0
   -1.6602   -1.0649    2.2679 H   0  0  0  0  0  0  0  0  0  0  0  0
   -1.1358    0.4544    2.9905 H   0  0  0  0  0  0  0  0  0  0  0  0
   -3.5560    0.0959    3.2711 H   0  0  0  0  0  0  0  0  0  0  0  0
   -3.2406    1.5538    2.3499 H   0  0  0  0  0  0  0  0  0  0  0  0
   -5.3401   -1.1599    2.3931 H   0  0  0  0  0  0  0  0  0  0  0  0
   -5.9988   -1.6017   -1.8699 H   0  0  0  0  0  0  0  0  0  0  0  0
   -4.1568   -0.1223   -2.3593 H   0  0  0  0  0  0  0  0  0  0  0  0
   -4.7647    2.1175   -0.2603 H   0  0  0  0  0  0  0  0  0  0  0  0
   -3.1042    2.4509    0.2177 H   0  0  0  0  0  0  0  0  0  0  0  0
   -3.4899    2.1569   -1.4756 H   0  0  0  0  0  0  0  0  0  0  0  0
   -1.3421    1.4210   -1.8567 H   0  0  0  0  0  0  0  0  0  0  0  0
   -1.9066   -1.2315   -2.6740 H   0  0  0  0  0  0  0  0  0  0  0  0
    0.2511   -1.1733   -1.7806 H   0  0  0  0  0  0  0  0  0  0  0  0
    0.6324    0.2425   -2.7161 H   0  0  0  0  0  0  0  0  0  0  0  0
    1.7979    2.4316    0.0889 H   0  0  0  0  0  0  0  0  0  0  0  0
    0.2748    2.5181   -0.7739 H   0  0  0  0  0  0  0  0  0  0  0  0
    1.7659    2.2469   -1.6703 H   0  0  0  0  0  0  0  0  0  0  0  0
    3.3721    1.0790   -2.7411 H   0  0  0  0  0  0  0  0  0  0  0  0
    4.8334    0.2307   -2.1560 H   0  0  0  0  0  0  0  0  0  0  0  0
    3.9655   -1.3871   -3.8672 H   0  0  0  0  0  0  0  0  0  0  0  0
  1  2  1  0
  2  3  1  0
  2  4  1  0
  4  5  1  0
  5  6  1  0
  6  7  1  0
  7  8  1  0
  8  9  1  0
  9 10  1  0
 10 11  1  0
 11 12  2  0
 12 13  1  0
 13 14  2  0
 13 15  1  0
 15 16  2  0
 16 17  1  0
 17 18  1  0
 17 19  1  0
 19 20  1  0
 19 21  1  0
 21 22  1  0
 21 23  1  0
 23 24  1  0
 24 25  1  0
 24 26  1  0
 26 27  1  0
 26 28  1  0
 28 29  2  0
 28 30  1  0
 30 31  1  0
 17 11  1  0
 19  8  1  0
 24  7  1  0
 26  5  1  0
 27  2  1  0
  1 32  1  0
  1 33  1  0
  1 34  1  0
  3 35  1  0
  3 36  1  0
  3 37  1  0
  5 38  1  0
  6 39  1  0
  6 40  1  0
  7 41  1  0
  8 42  1  0
  9 43  1  0
  9 44  1  0
 10 45  1  0
 10 46  1  0
 12 47  1  0
 15 48  1  0
 16 49  1  0
 18 50  1  0
 18 51  1  0
 18 52  1  0
 21 53  1  0
 22 54  1  0
 23 55  1  0
 23 56  1  0
 25 57  1  0
 25 58  1  0
 25 59  1  0
 30 60  1  0
 30 61  1  0
 31 62  1  0
M  END
>  <Energy>  (1) 
166.1360775963319

>  <Real charge>  (1) 
0

>  <Mult>  (1) 
1

$$$$
mol_918 82
     RDKit          3D

 62 66  0  0  0  0  0  0  0  0999 V2000
    3.8032   -1.9251    1.8358 C   0  0  0  0  0  0  0  0  0  0  0  0
    3.9141   -1.1635    0.5213 C   0  0  0  0  0  0  0  0  0  0  0  0
    5.3765   -0.9731    0.1326 C   0  0  0  0  0  0  0  0  0  0  0  0
    3.2646   -1.9037   -0.5052 O   0  0  0  0  0  0  0  0  0  0  0  0
    2.2246   -1.0786   -1.0233 C   0  0  0  0  0  0  0  0  0  0  0  0
    0.8644   -1.5589   -0.5046 C   0  0  0  0  0  0  0  0  0  0  0  0
    0.3937   -0.4919    0.4972 C   0  0  0  0  0  0  0  0  0  0  0  0
   -1.1326   -0.4096    0.7365 C   0  0  0  0  0  0  0  0  0  0  0  0
   -1.6873   -1.7811    1.1588 C   0  0  0  0  0  0  0  0  0  0  0  0
   -3.1611   -1.7004    1.5348 C   0  0  0  0  0  0  0  0  0  0  0  0
   -3.9527   -1.1150    0.3945 C   0  0  0  0  0  0  0  0  0  0  0  0
   -4.9485   -1.8303   -0.1596 C   0  0  0  0  0  0  0  0  0  0  0  0
   -5.7132   -1.3407   -1.3229 C   0  0  0  0  0  0  0  0  0  0  0  0
   -6.6231   -1.9981   -1.8110 O   0  0  0  0  0  0  0  0  0  0  0  0
   -5.3373   -0.0247   -1.8662 C   0  0  0  0  0  0  0  0  0  0  0  0
   -4.3477    0.6917   -1.3167 C   0  0  0  0  0  0  0  0  0  0  0  0
   -3.5044    0.2716   -0.1122 C   0  0  0  0  0  0  0  0  0  0  0  0
   -3.8091    1.3197    0.9846 C   0  0  0  0  0  0  0  0  0  0  0  0
   -1.9492    0.2003   -0.4463 C   0  0  0  0  0  0  0  0  0  0  0  0
   -1.8139   -0.6562   -1.5184 F   0  0  0  0  0  0  0  0  0  0  0  0
   -1.2921    1.5363   -0.8877 C   0  0  0  0  0  0  0  0  0  0  0  0
   -1.8813    2.0579   -2.0805 O   0  0  0  0  0  0  0  0  0  0  0  0
    0.2051    1.3804   -1.1901 C   0  0  0  0  0  0  0  0  0  0  0  0
    1.0360    0.8202   -0.0159 C   0  0  0  0  0  0  0  0  0  0  0  0
    1.1102    1.8614    1.1186 C   0  0  0  0  0  0  0  0  0  0  0  0
    2.4516    0.3250   -0.4616 C   0  0  0  0  0  0  0  0  0  0  0  0
    3.2910    0.1145    0.6780 O   0  0  0  0  0  0  0  0  0  0  0  0
    3.1398    1.2429   -1.4868 C   0  0  0  0  0  0  0  0  0  0  0  0
    2.9545    1.1366   -2.7042 O   0  0  0  0  0  0  0  0  0  0  0  0
    4.0223    2.3669   -0.9547 C   0  0  0  0  0  0  0  0  0  0  0  0
    4.6994    3.0389   -2.0107 O   0  0  0  0  0  0  0  0  0  0  0  0
    4.2734   -1.3733    2.6565 H   0  0  0  0  0  0  0  0  0  0  0  0
    4.2597   -2.9177    1.7606 H   0  0  0  0  0  0  0  0  0  0  0  0
    2.7531   -2.0760    2.1083 H   0  0  0  0  0  0  0  0  0  0  0  0
    5.4597   -0.4688   -0.8364 H   0  0  0  0  0  0  0  0  0  0  0  0
    5.9064   -0.3574    0.8669 H   0  0  0  0  0  0  0  0  0  0  0  0
    5.8891   -1.9359    0.0329 H   0  0  0  0  0  0  0  0  0  0  0  0
    2.2447   -1.1502   -2.1150 H   0  0  0  0  0  0  0  0  0  0  0  0
    0.9240   -2.5461   -0.0335 H   0  0  0  0  0  0  0  0  0  0  0  0
    0.1771   -1.6403   -1.3507 H   0  0  0  0  0  0  0  0  0  0  0  0
    0.8501   -0.7450    1.4656 H   0  0  0  0  0  0  0  0  0  0  0  0
   -1.2584    0.2592    1.5979 H   0  0  0  0  0  0  0  0  0  0  0  0
   -1.1221   -2.1630    2.0178 H   0  0  0  0  0  0  0  0  0  0  0  0
   -1.5627   -2.5093    0.3476 H   0  0  0  0  0  0  0  0  0  0  0  0
   -3.2923   -1.0883    2.4343 H   0  0  0  0  0  0  0  0  0  0  0  0
   -3.5155   -2.7053    1.7950 H   0  0  0  0  0  0  0  0  0  0  0  0
   -5.2372   -2.8128    0.1970 H   0  0  0  0  0  0  0  0  0  0  0  0
   -5.9138    0.3311   -2.7115 H   0  0  0  0  0  0  0  0  0  0  0  0
   -4.1598    1.6752   -1.7423 H   0  0  0  0  0  0  0  0  0  0  0  0
   -3.2246    1.1646    1.8960 H   0  0  0  0  0  0  0  0  0  0  0  0
   -3.6028    2.3395    0.6394 H   0  0  0  0  0  0  0  0  0  0  0  0
   -4.8669    1.2911    1.2772 H   0  0  0  0  0  0  0  0  0  0  0  0
   -1.4267    2.2975   -0.1140 H   0  0  0  0  0  0  0  0  0  0  0  0
   -1.8600    1.3401   -2.7442 H   0  0  0  0  0  0  0  0  0  0  0  0
    0.3118    0.7433   -2.0785 H   0  0  0  0  0  0  0  0  0  0  0  0
    0.6015    2.3573   -1.4990 H   0  0  0  0  0  0  0  0  0  0  0  0
    1.6956    1.4981    1.9699 H   0  0  0  0  0  0  0  0  0  0  0  0
    1.5662    2.7929    0.7728 H   0  0  0  0  0  0  0  0  0  0  0  0
    0.1205    2.1161    1.5094 H   0  0  0  0  0  0  0  0  0  0  0  0
    3.4047    3.0994   -0.4336 H   0  0  0  0  0  0  0  0  0  0  0  0
    4.7787    1.9677   -0.2767 H   0  0  0  0  0  0  0  0  0  0  0  0
    4.2290    2.8030   -2.8365 H   0  0  0  0  0  0  0  0  0  0  0  0
  1  2  1  0
  2  3  1  0
  2  4  1  0
  4  5  1  0
  5  6  1  0
  6  7  1  0
  7  8  1  0
  8  9  1  0
  9 10  1  0
 10 11  1  0
 11 12  2  0
 12 13  1  0
 13 14  2  0
 13 15  1  0
 15 16  2  0
 16 17  1  0
 17 18  1  0
 17 19  1  0
 19 20  1  0
 19 21  1  0
 21 22  1  0
 21 23  1  0
 23 24  1  0
 24 25  1  0
 24 26  1  0
 26 27  1  0
 26 28  1  0
 28 29  2  0
 28 30  1  0
 30 31  1  0
 17 11  1  0
 19  8  1  0
 24  7  1  0
 26  5  1  0
 27  2  1  0
  1 32  1  0
  1 33  1  0
  1 34  1  0
  3 35  1  0
  3 36  1  0
  3 37  1  0
  5 38  1  0
  6 39  1  0
  6 40  1  0
  7 41  1  0
  8 42  1  0
  9 43  1  0
  9 44  1  0
 10 45  1  0
 10 46  1  0
 12 47  1  0
 15 48  1  0
 16 49  1  0
 18 50  1  0
 18 51  1  0
 18 52  1  0
 21 53  1  0
 22 54  1  0
 23 55  1  0
 23 56  1  0
 25 57  1  0
 25 58  1  0
 25 59  1  0
 30 60  1  0
 30 61  1  0
 31 62  1  0
M  END
>  <Energy>  (2) 
166.19462746574436

>  <Real charge>  (2) 
0

>  <Mult>  (2) 
1

$$$$
