mol_113 24
     RDKit          3D

 17 16  0  0  0  0  0  0  0  0999 V2000
    2.5236    0.0073    0.1777 C   0  0  0  0  0  0  0  0  0  0  0  0
    1.2362    0.4555   -0.4955 C   0  0  0  0  0  0  0  0  0  0  0  0
    0.0122   -0.1983    0.1452 C   0  0  0  0  0  0  0  0  0  0  0  0
   -1.2797    0.2548   -0.5343 C   0  0  0  0  0  0  0  0  0  0  0  0
   -2.5000   -0.3933    0.1001 C   0  0  0  0  0  0  0  0  0  0  0  0
    2.6514   -1.0769    0.0977 H   0  0  0  0  0  0  0  0  0  0  0  0
    2.5258    0.2765    1.2388 H   0  0  0  0  0  0  0  0  0  0  0  0
    3.3859    0.4868   -0.2961 H   0  0  0  0  0  0  0  0  0  0  0  0
    1.1550    1.5465   -0.4259 H   0  0  0  0  0  0  0  0  0  0  0  0
    1.2799    0.2005   -1.5607 H   0  0  0  0  0  0  0  0  0  0  0  0
    0.1002   -1.2895    0.0769 H   0  0  0  0  0  0  0  0  0  0  0  0
   -0.0246    0.0562    1.2116 H   0  0  0  0  0  0  0  0  0  0  0  0
   -1.3746    1.3447   -0.4650 H   0  0  0  0  0  0  0  0  0  0  0  0
   -1.2498   -0.0012   -1.5998 H   0  0  0  0  0  0  0  0  0  0  0  0
   -2.5774   -0.1305    1.1599 H   0  0  0  0  0  0  0  0  0  0  0  0
   -3.4124   -0.0553   -0.4012 H   0  0  0  0  0  0  0  0  0  0  0  0
   -2.4518   -1.4839    0.0188 H   0  0  0  0  0  0  0  0  0  0  0  0
  1  2  1  0
  2  3  1  0
  3  4  1  0
  4  5  1  0
  1  6  1  0
  1  7  1  0
  1  8  1  0
  2  9  1  0
  2 10  1  0
  3 11  1  0
  3 12  1  0
  4 13  1  0
  4 14  1  0
  5 15  1  0
  5 16  1  0
  5 17  1  0
M  END
>  <Energy>  (1) 
-5.271752450678793

>  <Real charge>  (1) 
0

>  <Mult>  (1) 
1

$$$$
mol_113 212
     RDKit          3D

 17 16  0  0  0  0  0  0  0  0999 V2000
   -2.1259    0.4631    0.0034 C   0  0  0  0  0  0  0  0  0  0  0  0
   -1.2258   -0.3275    0.9403 C   0  0  0  0  0  0  0  0  0  0  0  0
    0.0351   -0.8693    0.2637 C   0  0  0  0  0  0  0  0  0  0  0  0
    0.9935    0.2286   -0.1995 C   0  0  0  0  0  0  0  0  0  0  0  0
    2.2760   -0.3588   -0.7688 C   0  0  0  0  0  0  0  0  0  0  0  0
   -2.3921   -0.1284   -0.8782 H   0  0  0  0  0  0  0  0  0  0  0  0
   -3.0519    0.7399    0.5176 H   0  0  0  0  0  0  0  0  0  0  0  0
   -1.6448    1.3868   -0.3310 H   0  0  0  0  0  0  0  0  0  0  0  0
   -1.7969   -1.1746    1.3388 H   0  0  0  0  0  0  0  0  0  0  0  0
   -0.9501    0.2991    1.7965 H   0  0  0  0  0  0  0  0  0  0  0  0
    0.5542   -1.5203    0.9781 H   0  0  0  0  0  0  0  0  0  0  0  0
   -0.2468   -1.4989   -0.5892 H   0  0  0  0  0  0  0  0  0  0  0  0
    0.5201    0.8476   -0.9691 H   0  0  0  0  0  0  0  0  0  0  0  0
    1.2420    0.8859    0.6416 H   0  0  0  0  0  0  0  0  0  0  0  0
    2.8024   -0.9552   -0.0167 H   0  0  0  0  0  0  0  0  0  0  0  0
    2.9463    0.4417   -1.0971 H   0  0  0  0  0  0  0  0  0  0  0  0
    2.0647   -1.0002   -1.6304 H   0  0  0  0  0  0  0  0  0  0  0  0
  1  2  1  0
  2  3  1  0
  3  4  1  0
  4  5  1  0
  1  6  1  0
  1  7  1  0
  1  8  1  0
  2  9  1  0
  2 10  1  0
  3 11  1  0
  3 12  1  0
  4 13  1  0
  4 14  1  0
  5 15  1  0
  5 16  1  0
  5 17  1  0
M  END
>  <Energy>  (2) 
-4.441838202755059

>  <Real charge>  (2) 
0

>  <Mult>  (2) 
1

$$$$
