mol_732 188
     RDKit          3D

 24 24  0  0  0  0  0  0  0  0999 V2000
    3.5562    0.9410   -0.4720 C   0  0  0  0  0  0  0  0  0  0  0  0
    2.4764    0.1943    0.1530 N   0  0  0  0  0  0  0  0  0  0  0  0
    2.8303   -1.1455    0.6054 C   0  0  0  0  0  0  0  0  0  0  0  0
    1.1733    0.5862   -0.1675 C   0  0  0  0  0  0  0  0  0  0  0  0
    0.9491    1.4679   -0.9925 O   0  0  0  0  0  0  0  0  0  0  0  0
    0.2000   -0.0762    0.5486 N   0  0  0  0  0  0  0  0  0  0  0  0
   -1.1941   -0.0203    0.3473 C   0  0  0  0  0  0  0  0  0  0  0  0
   -1.7883    0.5009   -0.8039 C   0  0  0  0  0  0  0  0  0  0  0  0
   -3.1807    0.5100   -0.9437 C   0  0  0  0  0  0  0  0  0  0  0  0
   -3.9935   -0.0103    0.0641 C   0  0  0  0  0  0  0  0  0  0  0  0
   -5.7032    0.0307   -0.1742 Cl  0  0  0  0  0  0  0  0  0  0  0  0
   -3.4067   -0.5445    1.2143 C   0  0  0  0  0  0  0  0  0  0  0  0
   -4.3413   -1.2159    2.5045 Cl  0  0  0  0  0  0  0  0  0  0  0  0
   -2.0127   -0.5515    1.3512 C   0  0  0  0  0  0  0  0  0  0  0  0
    3.2852    1.9937   -0.5961 H   0  0  0  0  0  0  0  0  0  0  0  0
    3.7647    0.5075   -1.4548 H   0  0  0  0  0  0  0  0  0  0  0  0
    4.4494    0.8826    0.1568 H   0  0  0  0  0  0  0  0  0  0  0  0
    3.1859   -1.7185   -0.2569 H   0  0  0  0  0  0  0  0  0  0  0  0
    3.6315   -1.0674    1.3460 H   0  0  0  0  0  0  0  0  0  0  0  0
    1.9925   -1.6884    1.0451 H   0  0  0  0  0  0  0  0  0  0  0  0
    0.5105   -0.4327    1.4392 H   0  0  0  0  0  0  0  0  0  0  0  0
   -1.1915    0.9035   -1.6184 H   0  0  0  0  0  0  0  0  0  0  0  0
   -3.6198    0.9255   -1.8479 H   0  0  0  0  0  0  0  0  0  0  0  0
   -1.5730   -0.9726    2.2517 H   0  0  0  0  0  0  0  0  0  0  0  0
  1  2  1  0
  2  3  1  0
  2  4  1  0
  4  5  2  0
  4  6  1  0
  6  7  1  0
  7  8  2  0
  8  9  1  0
  9 10  2  0
 10 11  1  0
 10 12  1  0
 12 13  1  0
 12 14  2  0
 14  7  1  0
  1 15  1  0
  1 16  1  0
  1 17  1  0
  3 18  1  0
  3 19  1  0
  3 20  1  0
  6 21  1  0
  8 22  1  0
  9 23  1  0
 14 24  1  0
M  END
>  <Energy>  (1) 
-41.086874323911886

>  <Real charge>  (1) 
0

>  <Mult>  (1) 
1

$$$$
mol_732 62
     RDKit          3D

 24 24  0  0  0  0  0  0  0  0999 V2000
   -2.9659   -0.8759   -0.1702 C   0  0  0  0  0  0  0  0  0  0  0  0
   -2.4295    0.4753   -0.2764 N   0  0  0  0  0  0  0  0  0  0  0  0
   -3.3418    1.4599   -0.8357 C   0  0  0  0  0  0  0  0  0  0  0  0
   -1.0640    0.7582   -0.3781 C   0  0  0  0  0  0  0  0  0  0  0  0
   -0.6523    1.7543   -0.9663 O   0  0  0  0  0  0  0  0  0  0  0  0
   -0.2564   -0.1526    0.2673 N   0  0  0  0  0  0  0  0  0  0  0  0
    1.1500   -0.2321    0.2128 C   0  0  0  0  0  0  0  0  0  0  0  0
    1.7841   -1.0405    1.1636 C   0  0  0  0  0  0  0  0  0  0  0  0
    3.1748   -1.1810    1.1640 C   0  0  0  0  0  0  0  0  0  0  0  0
    3.9464   -0.5204    0.2064 C   0  0  0  0  0  0  0  0  0  0  0  0
    5.6588   -0.7404    0.2633 Cl  0  0  0  0  0  0  0  0  0  0  0  0
    3.3200    0.2789   -0.7546 C   0  0  0  0  0  0  0  0  0  0  0  0
    4.2107    1.1132   -1.9798 Cl  0  0  0  0  0  0  0  0  0  0  0  0
    1.9259    0.4181   -0.7508 C   0  0  0  0  0  0  0  0  0  0  0  0
   -3.2338   -1.2209   -1.1740 H   0  0  0  0  0  0  0  0  0  0  0  0
   -2.2565   -1.5892    0.2515 H   0  0  0  0  0  0  0  0  0  0  0  0
   -3.8608   -0.8525    0.4584 H   0  0  0  0  0  0  0  0  0  0  0  0
   -4.3107    1.3839   -0.3337 H   0  0  0  0  0  0  0  0  0  0  0  0
   -2.9562    2.4745   -0.6977 H   0  0  0  0  0  0  0  0  0  0  0  0
   -3.4612    1.2656   -1.9059 H   0  0  0  0  0  0  0  0  0  0  0  0
   -0.7032   -0.6331    1.0327 H   0  0  0  0  0  0  0  0  0  0  0  0
    1.2079   -1.5680    1.9201 H   0  0  0  0  0  0  0  0  0  0  0  0
    3.6497   -1.8086    1.9145 H   0  0  0  0  0  0  0  0  0  0  0  0
    1.4640    1.0334   -1.5179 H   0  0  0  0  0  0  0  0  0  0  0  0
  1  2  1  0
  2  3  1  0
  2  4  1  0
  4  5  2  0
  4  6  1  0
  6  7  1  0
  7  8  2  0
  8  9  1  0
  9 10  2  0
 10 11  1  0
 10 12  1  0
 12 13  1  0
 12 14  2  0
 14  7  1  0
  1 15  1  0
  1 16  1  0
  1 17  1  0
  3 18  1  0
  3 19  1  0
  3 20  1  0
  6 21  1  0
  8 22  1  0
  9 23  1  0
 14 24  1  0
M  END
>  <Energy>  (2) 
-40.77412163906156

>  <Real charge>  (2) 
0

>  <Mult>  (2) 
1

$$$$
