mol_932 14
     RDKit          3D

 25 25  0  0  0  0  0  0  0  0999 V2000
   -2.6271    0.1179    1.2686 C   0  0  0  0  0  0  0  0  0  0  0  0
   -2.0018    0.2067   -0.1266 C   0  0  0  0  0  0  0  0  0  0  0  0
   -2.5963   -0.8540   -1.0580 C   0  0  0  0  0  0  0  0  0  0  0  0
   -0.4855    0.1086   -0.0630 C   0  0  0  0  0  0  0  0  0  0  0  0
    0.1389   -1.0564    0.4137 C   0  0  0  0  0  0  0  0  0  0  0  0
    1.5318   -1.1557    0.4763 C   0  0  0  0  0  0  0  0  0  0  0  0
    2.3380   -0.0953    0.0541 C   0  0  0  0  0  0  0  0  0  0  0  0
    3.8315   -0.1894    0.1531 C   0  0  0  0  0  0  0  0  0  0  0  0
    1.7285    1.0765   -0.4075 C   0  0  0  0  0  0  0  0  0  0  0  0
    0.3348    1.1696   -0.4677 C   0  0  0  0  0  0  0  0  0  0  0  0
   -0.2423    2.3211   -0.9278 O   0  0  0  0  0  0  0  0  0  0  0  0
   -2.2128    0.8850    1.9323 H   0  0  0  0  0  0  0  0  0  0  0  0
   -2.4533   -0.8575    1.7357 H   0  0  0  0  0  0  0  0  0  0  0  0
   -3.7105    0.2712    1.2147 H   0  0  0  0  0  0  0  0  0  0  0  0
   -2.2898    1.1809   -0.5391 H   0  0  0  0  0  0  0  0  0  0  0  0
   -2.1557   -0.7865   -2.0590 H   0  0  0  0  0  0  0  0  0  0  0  0
   -2.4271   -1.8703   -0.6860 H   0  0  0  0  0  0  0  0  0  0  0  0
   -3.6782   -0.7143   -1.1581 H   0  0  0  0  0  0  0  0  0  0  0  0
   -0.4580   -1.9026    0.7462 H   0  0  0  0  0  0  0  0  0  0  0  0
    1.9808   -2.0703    0.8575 H   0  0  0  0  0  0  0  0  0  0  0  0
    4.3129    0.4014   -0.6333 H   0  0  0  0  0  0  0  0  0  0  0  0
    4.1670   -1.2248    0.0318 H   0  0  0  0  0  0  0  0  0  0  0  0
    4.1658    0.1788    1.1278 H   0  0  0  0  0  0  0  0  0  0  0  0
    2.3494    1.9118   -0.7185 H   0  0  0  0  0  0  0  0  0  0  0  0
    0.4591    2.9477   -1.1671 H   0  0  0  0  0  0  0  0  0  0  0  0
  1  2  1  0
  2  3  1  0
  2  4  1  0
  4  5  2  0
  5  6  1  0
  6  7  2  0
  7  8  1  0
  7  9  1  0
  9 10  2  0
 10 11  1  0
 10  4  1  0
  1 12  1  0
  1 13  1  0
  1 14  1  0
  2 15  1  0
  3 16  1  0
  3 17  1  0
  3 18  1  0
  5 19  1  0
  6 20  1  0
  8 21  1  0
  8 22  1  0
  8 23  1  0
  9 24  1  0
 11 25  1  0
M  END
>  <Energy>  (1) 
16.700820900953772

>  <Real charge>  (1) 
0

>  <Mult>  (1) 
1

$$$$
mol_932 246
     RDKit          3D

 25 25  0  0  0  0  0  0  0  0999 V2000
   -2.5332   -1.4211    0.2103 C   0  0  0  0  0  0  0  0  0  0  0  0
   -1.9230   -0.0855    0.6433 C   0  0  0  0  0  0  0  0  0  0  0  0
   -2.6913    1.0980    0.0492 C   0  0  0  0  0  0  0  0  0  0  0  0
   -0.4312   -0.0097    0.3590 C   0  0  0  0  0  0  0  0  0  0  0  0
    0.4540    0.1235    1.4427 C   0  0  0  0  0  0  0  0  0  0  0  0
    1.8358    0.1978    1.2449 C   0  0  0  0  0  0  0  0  0  0  0  0
    2.3711    0.1303   -0.0436 C   0  0  0  0  0  0  0  0  0  0  0  0
    3.8508    0.2438   -0.2596 C   0  0  0  0  0  0  0  0  0  0  0  0
    1.5003    0.0131   -1.1324 C   0  0  0  0  0  0  0  0  0  0  0  0
    0.1185   -0.0608   -0.9282 C   0  0  0  0  0  0  0  0  0  0  0  0
   -0.7093   -0.1822   -2.0088 O   0  0  0  0  0  0  0  0  0  0  0  0
   -1.9829   -2.2624    0.6460 H   0  0  0  0  0  0  0  0  0  0  0  0
   -2.5315   -1.5479   -0.8766 H   0  0  0  0  0  0  0  0  0  0  0  0
   -3.5736   -1.4925    0.5462 H   0  0  0  0  0  0  0  0  0  0  0  0
   -2.0626   -0.0250    1.7316 H   0  0  0  0  0  0  0  0  0  0  0  0
   -2.2543    2.0497    0.3714 H   0  0  0  0  0  0  0  0  0  0  0  0
   -2.6952    1.0858   -1.0450 H   0  0  0  0  0  0  0  0  0  0  0  0
   -3.7355    1.0805    0.3804 H   0  0  0  0  0  0  0  0  0  0  0  0
    0.0712    0.1737    2.4601 H   0  0  0  0  0  0  0  0  0  0  0  0
    2.4893    0.3080    2.1074 H   0  0  0  0  0  0  0  0  0  0  0  0
    4.4031   -0.1632    0.5939 H   0  0  0  0  0  0  0  0  0  0  0  0
    4.1605   -0.3210   -1.1452 H   0  0  0  0  0  0  0  0  0  0  0  0
    4.1299    1.2935   -0.3934 H   0  0  0  0  0  0  0  0  0  0  0  0
    1.9096   -0.0203   -2.1381 H   0  0  0  0  0  0  0  0  0  0  0  0
   -0.1706   -0.2060   -2.8156 H   0  0  0  0  0  0  0  0  0  0  0  0
  1  2  1  0
  2  3  1  0
  2  4  1  0
  4  5  2  0
  5  6  1  0
  6  7  2  0
  7  8  1  0
  7  9  1  0
  9 10  2  0
 10 11  1  0
 10  4  1  0
  1 12  1  0
  1 13  1  0
  1 14  1  0
  2 15  1  0
  3 16  1  0
  3 17  1  0
  3 18  1  0
  5 19  1  0
  6 20  1  0
  8 21  1  0
  8 22  1  0
  8 23  1  0
  9 24  1  0
 11 25  1  0
M  END
>  <Energy>  (2) 
17.224898350564818

>  <Real charge>  (2) 
0

>  <Mult>  (2) 
1

$$$$
