mol_496 319
     RDKit          3D

 30 31  0  0  0  0  0  0  0  0999 V2000
    3.5436    1.6837   -1.8246 N   0  0  0  0  0  0  0  0  0  0  0  0
    2.7424    0.8059   -1.0516 C   0  0  0  0  0  0  0  0  0  0  0  0
    1.3568    0.8313   -1.1456 C   0  0  0  0  0  0  0  0  0  0  0  0
    0.6046   -0.0360   -0.3626 C   0  0  0  0  0  0  0  0  0  0  0  0
    1.1981   -0.9116    0.4769 N   0  0  0  0  0  0  0  0  0  0  0  0
    2.5485   -0.9251    0.6062 C   0  0  0  0  0  0  0  0  0  0  0  0
    3.1311   -1.8323    1.4971 N   0  0  0  0  0  0  0  0  0  0  0  0
    3.3558   -0.0807   -0.1630 N   0  0  0  0  0  4  0  0  0  0  0  0
    4.6457   -0.1462   -0.1110 O   0  0  0  0  0  1  0  0  0  0  0  0
   -0.8026   -0.0225   -0.4840 N   0  0  0  0  0  0  0  0  0  0  0  0
   -1.4388   -1.2015    0.1319 C   0  0  0  0  0  0  0  0  0  0  0  0
   -2.9292   -1.2173   -0.2093 C   0  0  0  0  0  0  0  0  0  0  0  0
   -3.6063    0.0802    0.2218 C   0  0  0  0  0  0  0  0  0  0  0  0
   -2.8795    1.2855   -0.3672 C   0  0  0  0  0  0  0  0  0  0  0  0
   -1.3869    1.2555   -0.0352 C   0  0  0  0  0  0  0  0  0  0  0  0
    4.5201    1.4472   -1.5989 H   0  0  0  0  0  0  0  0  0  0  0  0
    3.3648    1.5959   -2.8202 H   0  0  0  0  0  0  0  0  0  0  0  0
    0.8734    1.5096   -1.8393 H   0  0  0  0  0  0  0  0  0  0  0  0
    4.1195   -1.9407    1.2721 H   0  0  0  0  0  0  0  0  0  0  0  0
    2.5715   -2.6671    1.6020 H   0  0  0  0  0  0  0  0  0  0  0  0
   -0.9937   -2.1265   -0.2565 H   0  0  0  0  0  0  0  0  0  0  0  0
   -1.3129   -1.1905    1.2229 H   0  0  0  0  0  0  0  0  0  0  0  0
   -3.4133   -2.0696    0.2802 H   0  0  0  0  0  0  0  0  0  0  0  0
   -3.0563   -1.3499   -1.2911 H   0  0  0  0  0  0  0  0  0  0  0  0
   -3.6061    0.1494    1.3164 H   0  0  0  0  0  0  0  0  0  0  0  0
   -4.6530    0.0806   -0.1017 H   0  0  0  0  0  0  0  0  0  0  0  0
   -3.0106    1.2886   -1.4567 H   0  0  0  0  0  0  0  0  0  0  0  0
   -3.3259    2.2106    0.0142 H   0  0  0  0  0  0  0  0  0  0  0  0
   -1.2419    1.3805    1.0462 H   0  0  0  0  0  0  0  0  0  0  0  0
   -0.9187    2.1130   -0.5322 H   0  0  0  0  0  0  0  0  0  0  0  0
  1  2  1  0
  2  3  2  0
  3  4  1  0
  4  5  2  0
  5  6  1  0
  6  7  1  0
  6  8  2  0
  8  9  1  0
  4 10  1  0
 10 11  1  0
 11 12  1  0
 12 13  1  0
 13 14  1  0
 14 15  1  0
  8  2  1  0
 15 10  1  0
  1 16  1  0
  1 17  1  0
  3 18  1  0
  7 19  1  0
  7 20  1  0
 11 21  1  0
 11 22  1  0
 12 23  1  0
 12 24  1  0
 13 25  1  0
 13 26  1  0
 14 27  1  0
 14 28  1  0
 15 29  1  0
 15 30  1  0
M  CHG  2   8   1   9  -1
M  END
>  <Energy>  (1) 
40.30626450361489

>  <Real charge>  (1) 
0

>  <Mult>  (1) 
1

$$$$
mol_496 191
     RDKit          3D

 30 31  0  0  0  0  0  0  0  0999 V2000
    3.9010    1.5983   -0.6169 N   0  0  0  0  0  0  0  0  0  0  0  0
    2.9051    0.6737   -0.2140 C   0  0  0  0  0  0  0  0  0  0  0  0
    1.5688    0.8733   -0.5371 C   0  0  0  0  0  0  0  0  0  0  0  0
    0.6275   -0.0792   -0.1653 C   0  0  0  0  0  0  0  0  0  0  0  0
    0.9923   -1.2021    0.4900 N   0  0  0  0  0  0  0  0  0  0  0  0
    2.2901   -1.4036    0.8294 C   0  0  0  0  0  0  0  0  0  0  0  0
    2.6312   -2.5672    1.5274 N   0  0  0  0  0  0  0  0  0  0  0  0
    3.2811   -0.4829    0.4738 N   0  0  0  0  0  4  0  0  0  0  0  0
    4.5249   -0.6823    0.7622 O   0  0  0  0  0  1  0  0  0  0  0  0
   -0.7247    0.1184   -0.5199 N   0  0  0  0  0  0  0  0  0  0  0  0
   -1.3136    1.2936    0.1472 C   0  0  0  0  0  0  0  0  0  0  0  0
   -2.7047    1.5696   -0.4248 C   0  0  0  0  0  0  0  0  0  0  0  0
   -3.6021    0.3395   -0.3270 C   0  0  0  0  0  0  0  0  0  0  0  0
   -2.9269   -0.8688   -0.9689 C   0  0  0  0  0  0  0  0  0  0  0  0
   -1.5370   -1.1037   -0.3767 C   0  0  0  0  0  0  0  0  0  0  0  0
    4.7904    1.2390   -0.2430 H   0  0  0  0  0  0  0  0  0  0  0  0
    3.7151    2.5413   -0.2913 H   0  0  0  0  0  0  0  0  0  0  0  0
    1.2750    1.7423   -1.1150 H   0  0  0  0  0  0  0  0  0  0  0  0
    2.0135   -3.3333    1.2967 H   0  0  0  0  0  0  0  0  0  0  0  0
    3.6358   -2.7235    1.4495 H   0  0  0  0  0  0  0  0  0  0  0  0
   -1.3820    1.1209    1.2296 H   0  0  0  0  0  0  0  0  0  0  0  0
   -0.7065    2.1934   -0.0054 H   0  0  0  0  0  0  0  0  0  0  0  0
   -2.6137    1.8668   -1.4772 H   0  0  0  0  0  0  0  0  0  0  0  0
   -3.1655    2.4084    0.1087 H   0  0  0  0  0  0  0  0  0  0  0  0
   -4.5609    0.5367   -0.8190 H   0  0  0  0  0  0  0  0  0  0  0  0
   -3.8175    0.1242    0.7266 H   0  0  0  0  0  0  0  0  0  0  0  0
   -3.5471   -1.7606   -0.8260 H   0  0  0  0  0  0  0  0  0  0  0  0
   -2.8415   -0.7034   -2.0503 H   0  0  0  0  0  0  0  0  0  0  0  0
   -1.6322   -1.3895    0.6795 H   0  0  0  0  0  0  0  0  0  0  0  0
   -1.0759   -1.9391   -0.9190 H   0  0  0  0  0  0  0  0  0  0  0  0
  1  2  1  0
  2  3  2  0
  3  4  1  0
  4  5  2  0
  5  6  1  0
  6  7  1  0
  6  8  2  0
  8  9  1  0
  4 10  1  0
 10 11  1  0
 11 12  1  0
 12 13  1  0
 13 14  1  0
 14 15  1  0
  8  2  1  0
 15 10  1  0
  1 16  1  0
  1 17  1  0
  3 18  1  0
  7 19  1  0
  7 20  1  0
 11 21  1  0
 11 22  1  0
 12 23  1  0
 12 24  1  0
 13 25  1  0
 13 26  1  0
 14 27  1  0
 14 28  1  0
 15 29  1  0
 15 30  1  0
M  CHG  2   8   1   9  -1
M  END
>  <Energy>  (2) 
40.59538589214241

>  <Real charge>  (2) 
0

>  <Mult>  (2) 
1

$$$$
mol_496 378
     RDKit          3D

 30 31  0  0  0  0  0  0  0  0999 V2000
   -3.6438   -2.0998   -0.5646 N   0  0  0  0  0  0  0  0  0  0  0  0
   -2.7881   -1.0618   -0.1188 C   0  0  0  0  0  0  0  0  0  0  0  0
   -1.4068   -1.1984   -0.1705 C   0  0  0  0  0  0  0  0  0  0  0  0
   -0.6021   -0.1601    0.2827 C   0  0  0  0  0  0  0  0  0  0  0  0
   -1.1389    0.9669    0.7977 N   0  0  0  0  0  0  0  0  0  0  0  0
   -2.4858    1.1018    0.8879 C   0  0  0  0  0  0  0  0  0  0  0  0
   -3.0106    2.2814    1.4245 N   0  0  0  0  0  0  0  0  0  0  0  0
   -3.3443    0.1045    0.4132 N   0  0  0  0  0  4  0  0  0  0  0  0
   -4.6272    0.2641    0.4052 O   0  0  0  0  0  1  0  0  0  0  0  0
    0.8003   -0.3094    0.2321 N   0  0  0  0  0  0  0  0  0  0  0  0
    1.5100    0.6756    1.0683 C   0  0  0  0  0  0  0  0  0  0  0  0
    2.9960    0.3209    1.1287 C   0  0  0  0  0  0  0  0  0  0  0  0
    3.5966    0.2239   -0.2706 C   0  0  0  0  0  0  0  0  0  0  0  0
    2.7947   -0.7468   -1.1324 C   0  0  0  0  0  0  0  0  0  0  0  0
    1.3092   -0.3841   -1.1484 C   0  0  0  0  0  0  0  0  0  0  0  0
   -4.6038   -1.7463   -0.4483 H   0  0  0  0  0  0  0  0  0  0  0  0
   -3.4629   -2.3730   -1.5249 H   0  0  0  0  0  0  0  0  0  0  0  0
   -0.9654   -2.1200   -0.5328 H   0  0  0  0  0  0  0  0  0  0  0  0
   -2.3973    3.0707    1.2785 H   0  0  0  0  0  0  0  0  0  0  0  0
   -3.9903    2.3722    1.1586 H   0  0  0  0  0  0  0  0  0  0  0  0
    1.1178    0.6654    2.0933 H   0  0  0  0  0  0  0  0  0  0  0  0
    1.3917    1.6901    0.6645 H   0  0  0  0  0  0  0  0  0  0  0  0
    3.5345    1.0752    1.7130 H   0  0  0  0  0  0  0  0  0  0  0  0
    3.1230   -0.6395    1.6442 H   0  0  0  0  0  0  0  0  0  0  0  0
    4.6392   -0.1067   -0.2074 H   0  0  0  0  0  0  0  0  0  0  0  0
    3.5996    1.2156   -0.7392 H   0  0  0  0  0  0  0  0  0  0  0  0
    3.1876   -0.7468   -2.1552 H   0  0  0  0  0  0  0  0  0  0  0  0
    2.9173   -1.7639   -0.7391 H   0  0  0  0  0  0  0  0  0  0  0  0
    1.1647    0.5776   -1.6587 H   0  0  0  0  0  0  0  0  0  0  0  0
    0.7849   -1.1493   -1.7326 H   0  0  0  0  0  0  0  0  0  0  0  0
  1  2  1  0
  2  3  2  0
  3  4  1  0
  4  5  2  0
  5  6  1  0
  6  7  1  0
  6  8  2  0
  8  9  1  0
  4 10  1  0
 10 11  1  0
 11 12  1  0
 12 13  1  0
 13 14  1  0
 14 15  1  0
  8  2  1  0
 15 10  1  0
  1 16  1  0
  1 17  1  0
  3 18  1  0
  7 19  1  0
  7 20  1  0
 11 21  1  0
 11 22  1  0
 12 23  1  0
 12 24  1  0
 13 25  1  0
 13 26  1  0
 14 27  1  0
 14 28  1  0
 15 29  1  0
 15 30  1  0
M  CHG  2   8   1   9  -1
M  END
>  <Energy>  (3) 
40.92530070317422

>  <Real charge>  (3) 
0

>  <Mult>  (3) 
1

$$$$
