mol_189 187
     RDKit          3D

 72 77  0  0  0  0  0  0  0  0999 V2000
   -4.8177    1.7839    0.2640 C   0  0  0  0  0  0  0  0  0  0  0  0
   -6.2082    1.1613    0.4241 C   0  0  0  0  0  0  0  0  0  0  0  0
   -7.2141    2.1541    0.2329 O   0  0  0  0  0  0  0  0  0  0  0  0
   -6.4387    0.0412   -0.5887 C   0  0  0  0  0  0  0  0  0  0  0  0
   -5.3411   -1.0207   -0.5093 C   0  0  0  0  0  0  0  0  0  0  0  0
   -3.9035   -0.4514   -0.6483 C   0  0  0  0  0  0  0  0  0  0  0  0
   -3.6655    0.0211   -2.1014 C   0  0  0  0  0  0  0  0  0  0  0  0
   -2.9015   -1.6017   -0.3254 C   0  0  0  0  0  0  0  0  0  0  0  0
   -1.5045   -1.0623    0.0045 C   0  0  0  0  0  0  0  0  0  0  0  0
   -0.4843   -2.1788    0.2260 C   0  0  0  0  0  0  0  0  0  0  0  0
    0.8993   -1.5787    0.4944 C   0  0  0  0  0  0  0  0  0  0  0  0
    0.9549   -0.5851    1.6914 C   0  0  0  0  0  0  0  0  0  0  0  0
    0.8544   -1.4067    2.9958 C   0  0  0  0  0  0  0  0  0  0  0  0
    2.2259    0.3644    1.6686 C   0  0  0  0  0  0  0  0  0  0  0  0
    2.4252    1.0905    3.0325 C   0  0  0  0  0  0  0  0  0  0  0  0
    3.5757   -0.3380    1.3608 C   0  0  0  0  0  0  0  0  0  0  0  0
    3.9335   -0.4558   -0.1187 C   0  0  0  0  0  0  0  0  0  0  0  0
    5.3262   -0.7693   -0.2421 O   0  0  0  0  0  0  0  0  0  0  0  0
    5.7037   -0.9668   -1.6080 C   0  0  0  0  0  0  0  0  0  0  0  0
    5.4547    0.2969   -2.4397 C   0  0  0  0  0  0  0  0  0  0  0  0
    5.8270    0.0747   -3.9015 C   0  0  0  0  0  0  0  0  0  0  0  0
    3.9951    0.7463   -2.3028 C   0  0  0  0  0  0  0  0  0  0  0  0
    3.6118    0.8577   -0.8287 C   0  0  0  0  0  0  0  0  0  0  0  0
    2.2188    1.1287   -0.7212 O   0  0  0  0  0  0  0  0  0  0  0  0
    1.8324    1.4451    0.6188 C   0  0  0  0  0  0  0  0  0  0  0  0
    0.2955    1.5362    0.6413 C   0  0  0  0  0  0  0  0  0  0  0  0
   -0.2095    0.4453    1.6050 C   0  0  0  0  0  0  0  0  0  0  0  0
   -1.5797   -0.1725    1.2559 C   0  0  0  0  0  0  0  0  0  0  0  0
   -2.6890    0.8451    1.1527 C   0  0  0  0  0  0  0  0  0  0  0  0
   -3.7280    0.7369    0.3024 C   0  0  0  0  0  0  0  0  0  0  0  0
   -4.7637    2.3394   -0.6808 H   0  0  0  0  0  0  0  0  0  0  0  0
   -4.6755    2.5403    1.0466 H   0  0  0  0  0  0  0  0  0  0  0  0
   -6.3246    0.7620    1.4393 H   0  0  0  0  0  0  0  0  0  0  0  0
   -7.0773    2.8405    0.9081 H   0  0  0  0  0  0  0  0  0  0  0  0
   -6.5038    0.4561   -1.6019 H   0  0  0  0  0  0  0  0  0  0  0  0
   -7.4158   -0.4225   -0.4044 H   0  0  0  0  0  0  0  0  0  0  0  0
   -5.4420   -1.5323    0.4578 H   0  0  0  0  0  0  0  0  0  0  0  0
   -5.5209   -1.7818   -1.2792 H   0  0  0  0  0  0  0  0  0  0  0  0
   -2.6682    0.4555   -2.2298 H   0  0  0  0  0  0  0  0  0  0  0  0
   -4.3846    0.7841   -2.4162 H   0  0  0  0  0  0  0  0  0  0  0  0
   -3.7556   -0.8150   -2.8044 H   0  0  0  0  0  0  0  0  0  0  0  0
   -2.8468   -2.3009   -1.1697 H   0  0  0  0  0  0  0  0  0  0  0  0
   -3.2616   -2.1881    0.5314 H   0  0  0  0  0  0  0  0  0  0  0  0
   -1.1592   -0.4729   -0.8538 H   0  0  0  0  0  0  0  0  0  0  0  0
   -0.4286   -2.8121   -0.6679 H   0  0  0  0  0  0  0  0  0  0  0  0
   -0.7930   -2.8315    1.0499 H   0  0  0  0  0  0  0  0  0  0  0  0
    1.6130   -2.3965    0.6511 H   0  0  0  0  0  0  0  0  0  0  0  0
    1.1954   -1.0801   -0.4322 H   0  0  0  0  0  0  0  0  0  0  0  0
   -0.0141   -2.0721    2.9969 H   0  0  0  0  0  0  0  0  0  0  0  0
    1.7434   -2.0300    3.1376 H   0  0  0  0  0  0  0  0  0  0  0  0
    0.7469   -0.7683    3.8785 H   0  0  0  0  0  0  0  0  0  0  0  0
    2.7326    0.3903    3.8168 H   0  0  0  0  0  0  0  0  0  0  0  0
    3.2162    1.8469    2.9549 H   0  0  0  0  0  0  0  0  0  0  0  0
    1.5292    1.6142    3.3761 H   0  0  0  0  0  0  0  0  0  0  0  0
    3.6180   -1.3280    1.8313 H   0  0  0  0  0  0  0  0  0  0  0  0
    4.3945    0.2195    1.8390 H   0  0  0  0  0  0  0  0  0  0  0  0
    3.3628   -1.2816   -0.5560 H   0  0  0  0  0  0  0  0  0  0  0  0
    5.1580   -1.8292   -2.0103 H   0  0  0  0  0  0  0  0  0  0  0  0
    6.7691   -1.2206   -1.6187 H   0  0  0  0  0  0  0  0  0  0  0  0
    6.0874    1.0990   -2.0365 H   0  0  0  0  0  0  0  0  0  0  0  0
    6.8801   -0.2104   -3.9947 H   0  0  0  0  0  0  0  0  0  0  0  0
    5.2203   -0.7189   -4.3507 H   0  0  0  0  0  0  0  0  0  0  0  0
    5.6739    0.9890   -4.4843 H   0  0  0  0  0  0  0  0  0  0  0  0
    3.8377    1.7110   -2.8008 H   0  0  0  0  0  0  0  0  0  0  0  0
    3.3244    0.0377   -2.8070 H   0  0  0  0  0  0  0  0  0  0  0  0
    4.1861    1.6864   -0.3914 H   0  0  0  0  0  0  0  0  0  0  0  0
    2.2648    2.4249    0.8567 H   0  0  0  0  0  0  0  0  0  0  0  0
   -0.0165    2.5184    1.0165 H   0  0  0  0  0  0  0  0  0  0  0  0
   -0.1223    1.4333   -0.3652 H   0  0  0  0  0  0  0  0  0  0  0  0
   -0.3332    0.9230    2.5873 H   0  0  0  0  0  0  0  0  0  0  0  0
   -1.8569   -0.8105    2.1085 H   0  0  0  0  0  0  0  0  0  0  0  0
   -2.6385    1.6901    1.8367 H   0  0  0  0  0  0  0  0  0  0  0  0
  1  2  1  0
  2  3  1  0
  2  4  1  0
  4  5  1  0
  5  6  1  0
  6  7  1  0
  6  8  1  0
  8  9  1  0
  9 10  1  0
 10 11  1  0
 11 12  1  0
 12 13  1  0
 12 14  1  0
 14 15  1  0
 14 16  1  0
 16 17  1  0
 17 18  1  0
 18 19  1  0
 19 20  1  0
 20 21  1  0
 20 22  1  0
 22 23  1  0
 23 24  1  0
 24 25  1  0
 25 26  1  0
 26 27  1  0
 27 28  1  0
 28 29  1  0
 29 30  2  0
 30  1  1  0
 30  6  1  0
 28  9  1  0
 27 12  1  0
 25 14  1  0
 23 17  1  0
  1 31  1  0
  1 32  1  0
  2 33  1  0
  3 34  1  0
  4 35  1  0
  4 36  1  0
  5 37  1  0
  5 38  1  0
  7 39  1  0
  7 40  1  0
  7 41  1  0
  8 42  1  0
  8 43  1  0
  9 44  1  0
 10 45  1  0
 10 46  1  0
 11 47  1  0
 11 48  1  0
 13 49  1  0
 13 50  1  0
 13 51  1  0
 15 52  1  0
 15 53  1  0
 15 54  1  0
 16 55  1  0
 16 56  1  0
 17 57  1  0
 19 58  1  0
 19 59  1  0
 20 60  1  0
 21 61  1  0
 21 62  1  0
 21 63  1  0
 22 64  1  0
 22 65  1  0
 23 66  1  0
 25 67  1  0
 26 68  1  0
 26 69  1  0
 27 70  1  0
 28 71  1  0
 29 72  1  0
M  END
>  <Energy>  (1) 
135.1650184096025

>  <Real charge>  (1) 
0

>  <Mult>  (1) 
1

$$$$
