mol_632 13
     RDKit          3D

 14 14  0  0  0  0  0  0  0  0999 V2000
   -2.2836   -0.1389    0.3946 N   0  0  0  0  0  0  0  0  0  0  0  0
   -0.9170   -0.0645    0.0991 C   0  0  0  0  0  0  0  0  0  0  0  0
   -0.3091    1.1752   -0.1157 C   0  0  0  0  0  0  0  0  0  0  0  0
    1.0734    1.2710   -0.2955 C   0  0  0  0  0  0  0  0  0  0  0  0
    1.8666    0.1287   -0.2194 C   0  0  0  0  0  0  0  0  0  0  0  0
    1.2783   -1.1036    0.0548 C   0  0  0  0  0  0  0  0  0  0  0  0
   -0.1047   -1.1935    0.2337 C   0  0  0  0  0  0  0  0  0  0  0  0
   -2.8311    0.6079   -0.0211 H   0  0  0  0  0  0  0  0  0  0  0  0
   -2.6876   -1.0542    0.2242 H   0  0  0  0  0  0  0  0  0  0  0  0
   -0.9091    2.0805   -0.1457 H   0  0  0  0  0  0  0  0  0  0  0  0
    1.5299    2.2396   -0.4801 H   0  0  0  0  0  0  0  0  0  0  0  0
    2.9425    0.2019   -0.3528 H   0  0  0  0  0  0  0  0  0  0  0  0
    1.8952   -1.9936    0.1445 H   0  0  0  0  0  0  0  0  0  0  0  0
   -0.5435   -2.1566    0.4795 H   0  0  0  0  0  0  0  0  0  0  0  0
  1  2  1  0
  2  3  2  0
  3  4  1  0
  4  5  2  0
  5  6  1  0
  6  7  2  0
  7  2  1  0
  1  8  1  0
  1  9  1  0
  3 10  1  0
  4 11  1  0
  5 12  1  0
  6 13  1  0
  7 14  1  0
M  END
>  <Energy>  (1) 
6.9003808746260695

>  <Real charge>  (1) 
0

>  <Mult>  (1) 
1

$$$$
