mol_995 79
     RDKit          3D

 21 20  0  0  0  0  0  0  0  0999 V2000
   -2.1388   -1.1989    0.8902 C   0  0  0  0  0  0  0  0  0  0  0  0
   -1.2393   -0.5181   -0.1445 C   0  0  0  0  0  0  0  0  0  0  0  0
   -1.9074    0.7636   -0.6443 C   0  0  0  0  0  0  0  0  0  0  0  0
    0.1515   -0.2584    0.4633 C   0  0  0  0  0  0  0  0  0  0  0  0
    1.1653    0.2849   -0.5444 C   0  0  0  0  0  0  0  0  0  0  0  0
    2.5532    0.4085    0.0708 C   0  0  0  0  0  0  0  0  0  0  0  0
    3.4462    0.9200   -0.9091 O   0  0  0  0  0  0  0  0  0  0  0  0
   -2.2902   -0.5601    1.7671 H   0  0  0  0  0  0  0  0  0  0  0  0
   -1.6976   -2.1421    1.2295 H   0  0  0  0  0  0  0  0  0  0  0  0
   -3.1211   -1.4266    0.4628 H   0  0  0  0  0  0  0  0  0  0  0  0
   -1.1293   -1.2023   -0.9954 H   0  0  0  0  0  0  0  0  0  0  0  0
   -2.9202    0.5573   -1.0073 H   0  0  0  0  0  0  0  0  0  0  0  0
   -1.3506    1.2055   -1.4760 H   0  0  0  0  0  0  0  0  0  0  0  0
   -1.9805    1.5104    0.1535 H   0  0  0  0  0  0  0  0  0  0  0  0
    0.0642    0.4408    1.3048 H   0  0  0  0  0  0  0  0  0  0  0  0
    0.5374   -1.1994    0.8764 H   0  0  0  0  0  0  0  0  0  0  0  0
    0.8562    1.2686   -0.9159 H   0  0  0  0  0  0  0  0  0  0  0  0
    1.2155   -0.3693   -1.4235 H   0  0  0  0  0  0  0  0  0  0  0  0
    2.5423    1.0944    0.9239 H   0  0  0  0  0  0  0  0  0  0  0  0
    2.9225   -0.5672    0.4021 H   0  0  0  0  0  0  0  0  0  0  0  0
    4.3208    0.9884   -0.4898 H   0  0  0  0  0  0  0  0  0  0  0  0
  1  2  1  0
  2  3  1  0
  2  4  1  0
  4  5  1  0
  5  6  1  0
  6  7  1  0
  1  8  1  0
  1  9  1  0
  1 10  1  0
  2 11  1  0
  3 12  1  0
  3 13  1  0
  3 14  1  0
  4 15  1  0
  4 16  1  0
  5 17  1  0
  5 18  1  0
  6 19  1  0
  6 20  1  0
  7 21  1  0
M  END
>  <Energy>  (1) 
3.2376511175260054

>  <Real charge>  (1) 
0

>  <Mult>  (1) 
1

$$$$
mol_995 293
     RDKit          3D

 21 20  0  0  0  0  0  0  0  0999 V2000
   -1.4949    1.0205   -0.9602 C   0  0  0  0  0  0  0  0  0  0  0  0
   -1.2260    0.3478    0.3867 C   0  0  0  0  0  0  0  0  0  0  0  0
   -2.4400   -0.4897    0.7964 C   0  0  0  0  0  0  0  0  0  0  0  0
    0.0339   -0.5372    0.3614 C   0  0  0  0  0  0  0  0  0  0  0  0
    1.3232    0.2448    0.1068 C   0  0  0  0  0  0  0  0  0  0  0  0
    2.5507   -0.6522    0.2138 C   0  0  0  0  0  0  0  0  0  0  0  0
    3.7275    0.1116   -0.0143 O   0  0  0  0  0  0  0  0  0  0  0  0
   -0.7001    1.7264   -1.2193 H   0  0  0  0  0  0  0  0  0  0  0  0
   -2.4324    1.5865   -0.9310 H   0  0  0  0  0  0  0  0  0  0  0  0
   -1.5718    0.2815   -1.7648 H   0  0  0  0  0  0  0  0  0  0  0  0
   -1.0897    1.1327    1.1415 H   0  0  0  0  0  0  0  0  0  0  0  0
   -2.2846   -0.9460    1.7798 H   0  0  0  0  0  0  0  0  0  0  0  0
   -3.3396    0.1321    0.8574 H   0  0  0  0  0  0  0  0  0  0  0  0
   -2.6308   -1.2924    0.0760 H   0  0  0  0  0  0  0  0  0  0  0  0
    0.1217   -1.0536    1.3261 H   0  0  0  0  0  0  0  0  0  0  0  0
   -0.0755   -1.3173   -0.4028 H   0  0  0  0  0  0  0  0  0  0  0  0
    1.4152    1.0708    0.8227 H   0  0  0  0  0  0  0  0  0  0  0  0
    1.3076    0.7054   -0.8875 H   0  0  0  0  0  0  0  0  0  0  0  0
    2.6251   -1.0944    1.2121 H   0  0  0  0  0  0  0  0  0  0  0  0
    2.5161   -1.4642   -0.5198 H   0  0  0  0  0  0  0  0  0  0  0  0
    3.6642    0.4871   -0.9091 H   0  0  0  0  0  0  0  0  0  0  0  0
  1  2  1  0
  2  3  1  0
  2  4  1  0
  4  5  1  0
  5  6  1  0
  6  7  1  0
  1  8  1  0
  1  9  1  0
  1 10  1  0
  2 11  1  0
  3 12  1  0
  3 13  1  0
  3 14  1  0
  4 15  1  0
  4 16  1  0
  5 17  1  0
  5 18  1  0
  6 19  1  0
  6 20  1  0
  7 21  1  0
M  END
>  <Energy>  (2) 
3.4059095943154833

>  <Real charge>  (2) 
0

>  <Mult>  (2) 
1

$$$$
mol_995 163
     RDKit          3D

 21 20  0  0  0  0  0  0  0  0999 V2000
   -1.8378    1.0713   -0.0952 C   0  0  0  0  0  0  0  0  0  0  0  0
   -1.2584   -0.3439   -0.1142 C   0  0  0  0  0  0  0  0  0  0  0  0
   -2.1221   -1.2670    0.7490 C   0  0  0  0  0  0  0  0  0  0  0  0
    0.2020   -0.3885    0.3734 C   0  0  0  0  0  0  0  0  0  0  0  0
    1.1677    0.3955   -0.5236 C   0  0  0  0  0  0  0  0  0  0  0  0
    2.6222    0.1997   -0.1097 C   0  0  0  0  0  0  0  0  0  0  0  0
    2.8273    0.7149    1.1979 O   0  0  0  0  0  0  0  0  0  0  0  0
   -1.7621    1.5180    0.9020 H   0  0  0  0  0  0  0  0  0  0  0  0
   -2.8951    1.0617   -0.3814 H   0  0  0  0  0  0  0  0  0  0  0  0
   -1.3180    1.7244   -0.8026 H   0  0  0  0  0  0  0  0  0  0  0  0
   -1.2966   -0.7166   -1.1456 H   0  0  0  0  0  0  0  0  0  0  0  0
   -2.1276   -0.9428    1.7953 H   0  0  0  0  0  0  0  0  0  0  0  0
   -1.7477   -2.2956    0.7144 H   0  0  0  0  0  0  0  0  0  0  0  0
   -3.1574   -1.2781    0.3920 H   0  0  0  0  0  0  0  0  0  0  0  0
    0.2589   -0.0062    1.4004 H   0  0  0  0  0  0  0  0  0  0  0  0
    0.5296   -1.4356    0.4096 H   0  0  0  0  0  0  0  0  0  0  0  0
    1.0467    0.0768   -1.5651 H   0  0  0  0  0  0  0  0  0  0  0  0
    0.9285    1.4633   -0.4682 H   0  0  0  0  0  0  0  0  0  0  0  0
    3.2825    0.7360   -0.7985 H   0  0  0  0  0  0  0  0  0  0  0  0
    2.8933   -0.8609   -0.1182 H   0  0  0  0  0  0  0  0  0  0  0  0
    3.7642    0.5735    1.4166 H   0  0  0  0  0  0  0  0  0  0  0  0
  1  2  1  0
  2  3  1  0
  2  4  1  0
  4  5  1  0
  5  6  1  0
  6  7  1  0
  1  8  1  0
  1  9  1  0
  1 10  1  0
  2 11  1  0
  3 12  1  0
  3 13  1  0
  3 14  1  0
  4 15  1  0
  4 16  1  0
  5 17  1  0
  5 18  1  0
  6 19  1  0
  6 20  1  0
  7 21  1  0
M  END
>  <Energy>  (3) 
3.538903507334495

>  <Real charge>  (3) 
0

>  <Mult>  (3) 
1

$$$$
mol_995 269
     RDKit          3D

 21 20  0  0  0  0  0  0  0  0999 V2000
   -2.1299   -1.0856   -0.8095 C   0  0  0  0  0  0  0  0  0  0  0  0
   -1.2615   -0.2999    0.1765 C   0  0  0  0  0  0  0  0  0  0  0  0
   -1.8630    1.0886    0.3988 C   0  0  0  0  0  0  0  0  0  0  0  0
    0.1887   -0.2388   -0.3394 C   0  0  0  0  0  0  0  0  0  0  0  0
    1.1643    0.4009    0.6563 C   0  0  0  0  0  0  0  0  0  0  0  0
    2.6042    0.3611    0.1557 C   0  0  0  0  0  0  0  0  0  0  0  0
    3.0476   -0.9846    0.0573 O   0  0  0  0  0  0  0  0  0  0  0  0
   -2.1617   -0.5960   -1.7889 H   0  0  0  0  0  0  0  0  0  0  0  0
   -3.1573   -1.1726   -0.4403 H   0  0  0  0  0  0  0  0  0  0  0  0
   -1.7404   -2.0995   -0.9494 H   0  0  0  0  0  0  0  0  0  0  0  0
   -1.2722   -0.8361    1.1339 H   0  0  0  0  0  0  0  0  0  0  0  0
   -1.8126    1.6938   -0.5126 H   0  0  0  0  0  0  0  0  0  0  0  0
   -2.9147    1.0130    0.6958 H   0  0  0  0  0  0  0  0  0  0  0  0
   -1.3412    1.6266    1.1957 H   0  0  0  0  0  0  0  0  0  0  0  0
    0.2222    0.3151   -1.2863 H   0  0  0  0  0  0  0  0  0  0  0  0
    0.5234   -1.2598   -0.5620 H   0  0  0  0  0  0  0  0  0  0  0  0
    1.0986   -0.1339    1.6113 H   0  0  0  0  0  0  0  0  0  0  0  0
    0.8896    1.4454    0.8355 H   0  0  0  0  0  0  0  0  0  0  0  0
    2.6907    0.8350   -0.8274 H   0  0  0  0  0  0  0  0  0  0  0  0
    3.2585    0.8871    0.8581 H   0  0  0  0  0  0  0  0  0  0  0  0
    3.9666   -0.9599   -0.2593 H   0  0  0  0  0  0  0  0  0  0  0  0
  1  2  1  0
  2  3  1  0
  2  4  1  0
  4  5  1  0
  5  6  1  0
  6  7  1  0
  1  8  1  0
  1  9  1  0
  1 10  1  0
  2 11  1  0
  3 12  1  0
  3 13  1  0
  3 14  1  0
  4 15  1  0
  4 16  1  0
  5 17  1  0
  5 18  1  0
  6 19  1  0
  6 20  1  0
  7 21  1  0
M  END
>  <Energy>  (4) 
3.6188277808033167

>  <Real charge>  (4) 
0

>  <Mult>  (4) 
1

$$$$
mol_995 373
     RDKit          3D

 21 20  0  0  0  0  0  0  0  0999 V2000
   -1.5211   -1.2529    0.6340 C   0  0  0  0  0  0  0  0  0  0  0  0
   -1.2601   -0.0571   -0.2830 C   0  0  0  0  0  0  0  0  0  0  0  0
   -2.3037    1.0317   -0.0210 C   0  0  0  0  0  0  0  0  0  0  0  0
    0.1556    0.5230   -0.1050 C   0  0  0  0  0  0  0  0  0  0  0  0
    1.2688   -0.4594   -0.4883 C   0  0  0  0  0  0  0  0  0  0  0  0
    2.6466    0.1951   -0.4570 C   0  0  0  0  0  0  0  0  0  0  0  0
    2.9641    0.6461    0.8522 O   0  0  0  0  0  0  0  0  0  0  0  0
   -1.3524   -0.9922    1.6843 H   0  0  0  0  0  0  0  0  0  0  0  0
   -2.5553   -1.6000    0.5344 H   0  0  0  0  0  0  0  0  0  0  0  0
   -0.8719   -2.0970    0.3829 H   0  0  0  0  0  0  0  0  0  0  0  0
   -1.3761   -0.3897   -1.3223 H   0  0  0  0  0  0  0  0  0  0  0  0
   -2.1596    1.8803   -0.6982 H   0  0  0  0  0  0  0  0  0  0  0  0
   -2.2409    1.4036    1.0074 H   0  0  0  0  0  0  0  0  0  0  0  0
   -3.3165    0.6471   -0.1813 H   0  0  0  0  0  0  0  0  0  0  0  0
    0.2500    1.4204   -0.7300 H   0  0  0  0  0  0  0  0  0  0  0  0
    0.2921    0.8482    0.9341 H   0  0  0  0  0  0  0  0  0  0  0  0
    1.0845   -0.8552   -1.4935 H   0  0  0  0  0  0  0  0  0  0  0  0
    1.2646   -1.3034    0.2103 H   0  0  0  0  0  0  0  0  0  0  0  0
    2.6869    1.0542   -1.1339 H   0  0  0  0  0  0  0  0  0  0  0  0
    3.4157   -0.5181   -0.7703 H   0  0  0  0  0  0  0  0  0  0  0  0
    2.9287   -0.1246    1.4440 H   0  0  0  0  0  0  0  0  0  0  0  0
  1  2  1  0
  2  3  1  0
  2  4  1  0
  4  5  1  0
  5  6  1  0
  6  7  1  0
  1  8  1  0
  1  9  1  0
  1 10  1  0
  2 11  1  0
  3 12  1  0
  3 13  1  0
  3 14  1  0
  4 15  1  0
  4 16  1  0
  5 17  1  0
  5 18  1  0
  6 19  1  0
  6 20  1  0
  7 21  1  0
M  END
>  <Energy>  (5) 
3.646033537317653

>  <Real charge>  (5) 
0

>  <Mult>  (5) 
1

$$$$
mol_995 38
     RDKit          3D

 21 20  0  0  0  0  0  0  0  0999 V2000
   -2.0033   -0.9923    0.2818 C   0  0  0  0  0  0  0  0  0  0  0  0
   -1.3512    0.0579   -0.6175 C   0  0  0  0  0  0  0  0  0  0  0  0
   -1.6923    1.4658   -0.1293 C   0  0  0  0  0  0  0  0  0  0  0  0
    0.1664   -0.1594   -0.7693 C   0  0  0  0  0  0  0  0  0  0  0  0
    0.9770   -0.0459    0.5231 C   0  0  0  0  0  0  0  0  0  0  0  0
    2.4618   -0.2761    0.2692 C   0  0  0  0  0  0  0  0  0  0  0  0
    3.1621   -0.1589    1.5001 O   0  0  0  0  0  0  0  0  0  0  0  0
   -1.6885   -0.8880    1.3249 H   0  0  0  0  0  0  0  0  0  0  0  0
   -1.7510   -2.0037   -0.0533 H   0  0  0  0  0  0  0  0  0  0  0  0
   -3.0941   -0.8951    0.2553 H   0  0  0  0  0  0  0  0  0  0  0  0
   -1.7879   -0.0543   -1.6189 H   0  0  0  0  0  0  0  0  0  0  0  0
   -1.2163    2.2235   -0.7602 H   0  0  0  0  0  0  0  0  0  0  0  0
   -2.7743    1.6327   -0.1674 H   0  0  0  0  0  0  0  0  0  0  0  0
   -1.3702    1.6282    0.9041 H   0  0  0  0  0  0  0  0  0  0  0  0
    0.5522    0.5670   -1.4963 H   0  0  0  0  0  0  0  0  0  0  0  0
    0.3349   -1.1511   -1.2090 H   0  0  0  0  0  0  0  0  0  0  0  0
    0.6289   -0.7724    1.2661 H   0  0  0  0  0  0  0  0  0  0  0  0
    0.8457    0.9419    0.9795 H   0  0  0  0  0  0  0  0  0  0  0  0
    2.8587    0.4676   -0.4291 H   0  0  0  0  0  0  0  0  0  0  0  0
    2.6380   -1.2771   -0.1373 H   0  0  0  0  0  0  0  0  0  0  0  0
    4.1033   -0.3100    1.3082 H   0  0  0  0  0  0  0  0  0  0  0  0
  1  2  1  0
  2  3  1  0
  2  4  1  0
  4  5  1  0
  5  6  1  0
  6  7  1  0
  1  8  1  0
  1  9  1  0
  1 10  1  0
  2 11  1  0
  3 12  1  0
  3 13  1  0
  3 14  1  0
  4 15  1  0
  4 16  1  0
  5 17  1  0
  5 18  1  0
  6 19  1  0
  6 20  1  0
  7 21  1  0
M  END
>  <Energy>  (6) 
3.7668333464709116

>  <Real charge>  (6) 
0

>  <Mult>  (6) 
1

$$$$
mol_995 189
     RDKit          3D

 21 20  0  0  0  0  0  0  0  0999 V2000
   -2.3010    0.4675    0.7377 C   0  0  0  0  0  0  0  0  0  0  0  0
   -0.9631    0.4241   -0.0063 C   0  0  0  0  0  0  0  0  0  0  0  0
   -1.2076    0.5063   -1.5133 C   0  0  0  0  0  0  0  0  0  0  0  0
   -0.1870   -0.8445    0.3947 C   0  0  0  0  0  0  0  0  0  0  0  0
    1.1927   -1.0110   -0.2468 C   0  0  0  0  0  0  0  0  0  0  0  0
    2.1601    0.1198    0.0742 C   0  0  0  0  0  0  0  0  0  0  0  0
    3.4308   -0.1957   -0.4806 O   0  0  0  0  0  0  0  0  0  0  0  0
   -2.9334   -0.3859    0.4699 H   0  0  0  0  0  0  0  0  0  0  0  0
   -2.1444    0.4475    1.8214 H   0  0  0  0  0  0  0  0  0  0  0  0
   -2.8500    1.3843    0.4979 H   0  0  0  0  0  0  0  0  0  0  0  0
   -0.3911    1.3082    0.2990 H   0  0  0  0  0  0  0  0  0  0  0  0
   -1.8185    1.3814   -1.7603 H   0  0  0  0  0  0  0  0  0  0  0  0
   -1.7296   -0.3839   -1.8800 H   0  0  0  0  0  0  0  0  0  0  0  0
   -0.2674    0.6025   -2.0647 H   0  0  0  0  0  0  0  0  0  0  0  0
   -0.0650   -0.8565    1.4857 H   0  0  0  0  0  0  0  0  0  0  0  0
   -0.7874   -1.7291    0.1449 H   0  0  0  0  0  0  0  0  0  0  0  0
    1.1043   -1.1239   -1.3338 H   0  0  0  0  0  0  0  0  0  0  0  0
    1.6284   -1.9570    0.1003 H   0  0  0  0  0  0  0  0  0  0  0  0
    1.8263    1.0665   -0.3599 H   0  0  0  0  0  0  0  0  0  0  0  0
    2.2740    0.2412    1.1560 H   0  0  0  0  0  0  0  0  0  0  0  0
    4.0288    0.5383   -0.2588 H   0  0  0  0  0  0  0  0  0  0  0  0
  1  2  1  0
  2  3  1  0
  2  4  1  0
  4  5  1  0
  5  6  1  0
  6  7  1  0
  1  8  1  0
  1  9  1  0
  1 10  1  0
  2 11  1  0
  3 12  1  0
  3 13  1  0
  3 14  1  0
  4 15  1  0
  4 16  1  0
  5 17  1  0
  5 18  1  0
  6 19  1  0
  6 20  1  0
  7 21  1  0
M  END
>  <Energy>  (7) 
3.7803666933974918

>  <Real charge>  (7) 
0

>  <Mult>  (7) 
1

$$$$
mol_995 227
     RDKit          3D

 21 20  0  0  0  0  0  0  0  0999 V2000
   -2.1323   -0.8423   -1.0281 C   0  0  0  0  0  0  0  0  0  0  0  0
   -0.9340   -0.0104   -0.5621 C   0  0  0  0  0  0  0  0  0  0  0  0
   -1.4249    1.2871    0.0807 C   0  0  0  0  0  0  0  0  0  0  0  0
   -0.0618   -0.8462    0.3935 C   0  0  0  0  0  0  0  0  0  0  0  0
    1.1978   -0.1552    0.9215 C   0  0  0  0  0  0  0  0  0  0  0  0
    2.1697    0.2695   -0.1719 C   0  0  0  0  0  0  0  0  0  0  0  0
    3.3434    0.8171    0.4162 O   0  0  0  0  0  0  0  0  0  0  0  0
   -2.7427   -0.2794   -1.7423 H   0  0  0  0  0  0  0  0  0  0  0  0
   -2.7721   -1.1257   -0.1853 H   0  0  0  0  0  0  0  0  0  0  0  0
   -1.7995   -1.7595   -1.5254 H   0  0  0  0  0  0  0  0  0  0  0  0
   -0.3487    0.2461   -1.4530 H   0  0  0  0  0  0  0  0  0  0  0  0
   -0.5916    1.9578    0.3108 H   0  0  0  0  0  0  0  0  0  0  0  0
   -2.0964    1.8260   -0.5966 H   0  0  0  0  0  0  0  0  0  0  0  0
   -1.9706    1.0885    1.0093 H   0  0  0  0  0  0  0  0  0  0  0  0
   -0.6665   -1.1561    1.2558 H   0  0  0  0  0  0  0  0  0  0  0  0
    0.2388   -1.7707   -0.1166 H   0  0  0  0  0  0  0  0  0  0  0  0
    0.9359    0.7119    1.5391 H   0  0  0  0  0  0  0  0  0  0  0  0
    1.7122   -0.8433    1.6051 H   0  0  0  0  0  0  0  0  0  0  0  0
    1.7351    1.0406   -0.8137 H   0  0  0  0  0  0  0  0  0  0  0  0
    2.4604   -0.5790   -0.7993 H   0  0  0  0  0  0  0  0  0  0  0  0
    3.7476    0.1231    0.9644 H   0  0  0  0  0  0  0  0  0  0  0  0
  1  2  1  0
  2  3  1  0
  2  4  1  0
  4  5  1  0
  5  6  1  0
  6  7  1  0
  1  8  1  0
  1  9  1  0
  1 10  1  0
  2 11  1  0
  3 12  1  0
  3 13  1  0
  3 14  1  0
  4 15  1  0
  4 16  1  0
  5 17  1  0
  5 18  1  0
  6 19  1  0
  6 20  1  0
  7 21  1  0
M  END
>  <Energy>  (8) 
3.9677088560066323

>  <Real charge>  (8) 
0

>  <Mult>  (8) 
1

$$$$
mol_995 310
     RDKit          3D

 21 20  0  0  0  0  0  0  0  0999 V2000
   -2.2110    0.6383   -0.9219 C   0  0  0  0  0  0  0  0  0  0  0  0
   -1.2240   -0.2831   -0.2008 C   0  0  0  0  0  0  0  0  0  0  0  0
   -1.6246   -0.4197    1.2688 C   0  0  0  0  0  0  0  0  0  0  0  0
    0.2106    0.2516   -0.3721 C   0  0  0  0  0  0  0  0  0  0  0  0
    1.2806   -0.6845    0.2024 C   0  0  0  0  0  0  0  0  0  0  0  0
    2.6972   -0.2424   -0.1525 C   0  0  0  0  0  0  0  0  0  0  0  0
    3.0130    1.0001    0.4587 O   0  0  0  0  0  0  0  0  0  0  0  0
   -2.1967    1.6475   -0.4961 H   0  0  0  0  0  0  0  0  0  0  0  0
   -1.9653    0.7154   -1.9863 H   0  0  0  0  0  0  0  0  0  0  0  0
   -3.2328    0.2519   -0.8439 H   0  0  0  0  0  0  0  0  0  0  0  0
   -1.2882   -1.2741   -0.6676 H   0  0  0  0  0  0  0  0  0  0  0  0
   -2.6689   -0.7383    1.3585 H   0  0  0  0  0  0  0  0  0  0  0  0
   -1.5152    0.5316    1.8003 H   0  0  0  0  0  0  0  0  0  0  0  0
   -1.0134   -1.1693    1.7804 H   0  0  0  0  0  0  0  0  0  0  0  0
    0.2907    1.2389    0.0995 H   0  0  0  0  0  0  0  0  0  0  0  0
    0.4077    0.3960   -1.4421 H   0  0  0  0  0  0  0  0  0  0  0  0
    1.1861   -0.7159    1.2936 H   0  0  0  0  0  0  0  0  0  0  0  0
    1.1220   -1.6999   -0.1784 H   0  0  0  0  0  0  0  0  0  0  0  0
    3.4163   -0.9819    0.2134 H   0  0  0  0  0  0  0  0  0  0  0  0
    2.8318   -0.1502   -1.2352 H   0  0  0  0  0  0  0  0  0  0  0  0
    2.4839    1.6881    0.0214 H   0  0  0  0  0  0  0  0  0  0  0  0
  1  2  1  0
  2  3  1  0
  2  4  1  0
  4  5  1  0
  5  6  1  0
  6  7  1  0
  1  8  1  0
  1  9  1  0
  1 10  1  0
  2 11  1  0
  3 12  1  0
  3 13  1  0
  3 14  1  0
  4 15  1  0
  4 16  1  0
  5 17  1  0
  5 18  1  0
  6 19  1  0
  6 20  1  0
  7 21  1  0
M  END
>  <Energy>  (9) 
3.992928519697532

>  <Real charge>  (9) 
0

>  <Mult>  (9) 
1

$$$$
mol_995 204
     RDKit          3D

 21 20  0  0  0  0  0  0  0  0999 V2000
   -1.5012   -1.0541    0.6184 C   0  0  0  0  0  0  0  0  0  0  0  0
   -0.9284    0.2869    0.1586 C   0  0  0  0  0  0  0  0  0  0  0  0
   -2.0635    1.1979   -0.3177 C   0  0  0  0  0  0  0  0  0  0  0  0
    0.1142    0.1263   -0.9636 C   0  0  0  0  0  0  0  0  0  0  0  0
    1.3340   -0.7396   -0.6205 C   0  0  0  0  0  0  0  0  0  0  0  0
    2.1441   -0.2502    0.5741 C   0  0  0  0  0  0  0  0  0  0  0  0
    2.5855    1.0806    0.3506 O   0  0  0  0  0  0  0  0  0  0  0  0
   -0.7302   -1.6804    1.0772 H   0  0  0  0  0  0  0  0  0  0  0  0
   -1.9374   -1.6078   -0.2198 H   0  0  0  0  0  0  0  0  0  0  0  0
   -2.2854   -0.9045    1.3685 H   0  0  0  0  0  0  0  0  0  0  0  0
   -0.4583    0.7750    1.0204 H   0  0  0  0  0  0  0  0  0  0  0  0
   -2.7952    1.3582    0.4814 H   0  0  0  0  0  0  0  0  0  0  0  0
   -2.5886    0.7645   -1.1758 H   0  0  0  0  0  0  0  0  0  0  0  0
   -1.6766    2.1781   -0.6159 H   0  0  0  0  0  0  0  0  0  0  0  0
   -0.3713   -0.3090   -1.8471 H   0  0  0  0  0  0  0  0  0  0  0  0
    0.4630    1.1208   -1.2707 H   0  0  0  0  0  0  0  0  0  0  0  0
    1.9865   -0.7451   -1.5029 H   0  0  0  0  0  0  0  0  0  0  0  0
    1.0268   -1.7776   -0.4529 H   0  0  0  0  0  0  0  0  0  0  0  0
    3.0247   -0.8863    0.7101 H   0  0  0  0  0  0  0  0  0  0  0  0
    1.5565   -0.2792    1.4963 H   0  0  0  0  0  0  0  0  0  0  0  0
    3.1010    1.3454    1.1314 H   0  0  0  0  0  0  0  0  0  0  0  0
  1  2  1  0
  2  3  1  0
  2  4  1  0
  4  5  1  0
  5  6  1  0
  6  7  1  0
  1  8  1  0
  1  9  1  0
  1 10  1  0
  2 11  1  0
  3 12  1  0
  3 13  1  0
  3 14  1  0
  4 15  1  0
  4 16  1  0
  5 17  1  0
  5 18  1  0
  6 19  1  0
  6 20  1  0
  7 21  1  0
M  END
>  <Energy>  (10) 
4.02887031663176

>  <Real charge>  (10) 
0

>  <Mult>  (10) 
1

$$$$
mol_995 341
     RDKit          3D

 21 20  0  0  0  0  0  0  0  0999 V2000
   -1.6380    0.8898   -0.5811 C   0  0  0  0  0  0  0  0  0  0  0  0
   -0.9070    0.0091    0.4328 C   0  0  0  0  0  0  0  0  0  0  0  0
   -1.9137   -0.8872    1.1597 C   0  0  0  0  0  0  0  0  0  0  0  0
    0.1833   -0.8594   -0.2223 C   0  0  0  0  0  0  0  0  0  0  0  0
    1.2878   -0.0940   -0.9631 C   0  0  0  0  0  0  0  0  0  0  0  0
    2.0650    0.8923   -0.0979 C   0  0  0  0  0  0  0  0  0  0  0  0
    2.6364    0.2417    1.0278 O   0  0  0  0  0  0  0  0  0  0  0  0
   -2.4492    1.4458   -0.0986 H   0  0  0  0  0  0  0  0  0  0  0  0
   -2.0732    0.2896   -1.3873 H   0  0  0  0  0  0  0  0  0  0  0  0
   -0.9634    1.6256   -1.0291 H   0  0  0  0  0  0  0  0  0  0  0  0
   -0.4461    0.6594    1.1855 H   0  0  0  0  0  0  0  0  0  0  0  0
   -1.4134   -1.4991    1.9177 H   0  0  0  0  0  0  0  0  0  0  0  0
   -2.6749   -0.2853    1.6674 H   0  0  0  0  0  0  0  0  0  0  0  0
   -2.4238   -1.5603    0.4621 H   0  0  0  0  0  0  0  0  0  0  0  0
    0.6470   -1.4897    0.5475 H   0  0  0  0  0  0  0  0  0  0  0  0
   -0.2859   -1.5501   -0.9353 H   0  0  0  0  0  0  0  0  0  0  0  0
    0.8711    0.4303   -1.8298 H   0  0  0  0  0  0  0  0  0  0  0  0
    1.9906   -0.8389   -1.3579 H   0  0  0  0  0  0  0  0  0  0  0  0
    2.8744    1.3481   -0.6775 H   0  0  0  0  0  0  0  0  0  0  0  0
    1.4228    1.7011    0.2617 H   0  0  0  0  0  0  0  0  0  0  0  0
    3.2103   -0.4691    0.6950 H   0  0  0  0  0  0  0  0  0  0  0  0
  1  2  1  0
  2  3  1  0
  2  4  1  0
  4  5  1  0
  5  6  1  0
  6  7  1  0
  1  8  1  0
  1  9  1  0
  1 10  1  0
  2 11  1  0
  3 12  1  0
  3 13  1  0
  3 14  1  0
  4 15  1  0
  4 16  1  0
  5 17  1  0
  5 18  1  0
  6 19  1  0
  6 20  1  0
  7 21  1  0
M  END
>  <Energy>  (11) 
4.127389847056815

>  <Real charge>  (11) 
0

>  <Mult>  (11) 
1

$$$$
mol_995 316
     RDKit          3D

 21 20  0  0  0  0  0  0  0  0999 V2000
   -1.7192    1.3798    0.0444 C   0  0  0  0  0  0  0  0  0  0  0  0
   -1.2807    0.1085   -0.6824 C   0  0  0  0  0  0  0  0  0  0  0  0
   -1.9798   -1.1146   -0.0891 C   0  0  0  0  0  0  0  0  0  0  0  0
    0.2520   -0.0493   -0.7177 C   0  0  0  0  0  0  0  0  0  0  0  0
    0.9291   -0.1828    0.6526 C   0  0  0  0  0  0  0  0  0  0  0  0
    2.4376   -0.3738    0.5279 C   0  0  0  0  0  0  0  0  0  0  0  0
    3.0269    0.7806   -0.0527 O   0  0  0  0  0  0  0  0  0  0  0  0
   -1.2112    2.2587   -0.3660 H   0  0  0  0  0  0  0  0  0  0  0  0
   -1.5062    1.3301    1.1169 H   0  0  0  0  0  0  0  0  0  0  0  0
   -2.7976    1.5343   -0.0708 H   0  0  0  0  0  0  0  0  0  0  0  0
   -1.6125    0.1985   -1.7254 H   0  0  0  0  0  0  0  0  0  0  0  0
   -3.0653   -1.0314   -0.2105 H   0  0  0  0  0  0  0  0  0  0  0  0
   -1.6578   -2.0312   -0.5940 H   0  0  0  0  0  0  0  0  0  0  0  0
   -1.7756   -1.2224    0.9808 H   0  0  0  0  0  0  0  0  0  0  0  0
    0.6756    0.8132   -1.2479 H   0  0  0  0  0  0  0  0  0  0  0  0
    0.4981   -0.9315   -1.3229 H   0  0  0  0  0  0  0  0  0  0  0  0
    0.5150   -1.0369    1.1979 H   0  0  0  0  0  0  0  0  0  0  0  0
    0.7365    0.7200    1.2427 H   0  0  0  0  0  0  0  0  0  0  0  0
    2.8784   -0.5229    1.5187 H   0  0  0  0  0  0  0  0  0  0  0  0
    2.6728   -1.2426   -0.0952 H   0  0  0  0  0  0  0  0  0  0  0  0
    3.9836    0.6158   -0.1075 H   0  0  0  0  0  0  0  0  0  0  0  0
  1  2  1  0
  2  3  1  0
  2  4  1  0
  4  5  1  0
  5  6  1  0
  6  7  1  0
  1  8  1  0
  1  9  1  0
  1 10  1  0
  2 11  1  0
  3 12  1  0
  3 13  1  0
  3 14  1  0
  4 15  1  0
  4 16  1  0
  5 17  1  0
  5 18  1  0
  6 19  1  0
  6 20  1  0
  7 21  1  0
M  END
>  <Energy>  (12) 
4.12770935839053

>  <Real charge>  (12) 
0

>  <Mult>  (12) 
1

$$$$
mol_995 308
     RDKit          3D

 21 20  0  0  0  0  0  0  0  0999 V2000
   -1.8731    1.0867    1.1829 C   0  0  0  0  0  0  0  0  0  0  0  0
   -1.1998    0.3600    0.0155 C   0  0  0  0  0  0  0  0  0  0  0  0
   -1.9077   -0.9719   -0.2373 C   0  0  0  0  0  0  0  0  0  0  0  0
    0.3029    0.1844    0.3077 C   0  0  0  0  0  0  0  0  0  0  0  0
    1.0912   -0.3909   -0.8752 C   0  0  0  0  0  0  0  0  0  0  0  0
    2.5840   -0.5126   -0.5828 C   0  0  0  0  0  0  0  0  0  0  0  0
    3.1869    0.7665   -0.4507 O   0  0  0  0  0  0  0  0  0  0  0  0
   -1.7947    0.5080    2.1097 H   0  0  0  0  0  0  0  0  0  0  0  0
   -2.9355    1.2546    0.9766 H   0  0  0  0  0  0  0  0  0  0  0  0
   -1.4095    2.0642    1.3529 H   0  0  0  0  0  0  0  0  0  0  0  0
   -1.3138    0.9852   -0.8792 H   0  0  0  0  0  0  0  0  0  0  0  0
   -1.5386   -1.4541   -1.1473 H   0  0  0  0  0  0  0  0  0  0  0  0
   -1.7629   -1.6637    0.5994 H   0  0  0  0  0  0  0  0  0  0  0  0
   -2.9848   -0.8205   -0.3673 H   0  0  0  0  0  0  0  0  0  0  0  0
    0.7196    1.1633    0.5739 H   0  0  0  0  0  0  0  0  0  0  0  0
    0.4371   -0.4634    1.1833 H   0  0  0  0  0  0  0  0  0  0  0  0
    0.9450    0.2568   -1.7478 H   0  0  0  0  0  0  0  0  0  0  0  0
    0.7121   -1.3863   -1.1283 H   0  0  0  0  0  0  0  0  0  0  0  0
    3.0802   -1.0241   -1.4136 H   0  0  0  0  0  0  0  0  0  0  0  0
    2.7713   -1.0909    0.3279 H   0  0  0  0  0  0  0  0  0  0  0  0
    2.8901    1.1486    0.3920 H   0  0  0  0  0  0  0  0  0  0  0  0
  1  2  1  0
  2  3  1  0
  2  4  1  0
  4  5  1  0
  5  6  1  0
  6  7  1  0
  1  8  1  0
  1  9  1  0
  1 10  1  0
  2 11  1  0
  3 12  1  0
  3 13  1  0
  3 14  1  0
  4 15  1  0
  4 16  1  0
  5 17  1  0
  5 18  1  0
  6 19  1  0
  6 20  1  0
  7 21  1  0
M  END
>  <Energy>  (13) 
4.1729697068372165

>  <Real charge>  (13) 
0

>  <Mult>  (13) 
1

$$$$
mol_995 356
     RDKit          3D

 21 20  0  0  0  0  0  0  0  0999 V2000
   -1.6830    1.2967   -0.2249 C   0  0  0  0  0  0  0  0  0  0  0  0
   -1.1964    0.2096    0.7333 C   0  0  0  0  0  0  0  0  0  0  0  0
   -1.9037   -1.1143    0.4433 C   0  0  0  0  0  0  0  0  0  0  0  0
    0.3383    0.0692    0.7323 C   0  0  0  0  0  0  0  0  0  0  0  0
    0.9575   -0.3480   -0.6078 C   0  0  0  0  0  0  0  0  0  0  0  0
    2.4731   -0.5028   -0.5123 C   0  0  0  0  0  0  0  0  0  0  0  0
    3.0908    0.7339   -0.1848 O   0  0  0  0  0  0  0  0  0  0  0  0
   -1.5157    1.0222   -1.2713 H   0  0  0  0  0  0  0  0  0  0  0  0
   -2.7574    1.4676   -0.0965 H   0  0  0  0  0  0  0  0  0  0  0  0
   -1.1697    2.2445   -0.0325 H   0  0  0  0  0  0  0  0  0  0  0  0
   -1.4843    0.5166    1.7477 H   0  0  0  0  0  0  0  0  0  0  0  0
   -1.5480   -1.9021    1.1154 H   0  0  0  0  0  0  0  0  0  0  0  0
   -2.9841   -1.0118    0.5929 H   0  0  0  0  0  0  0  0  0  0  0  0
   -1.7441   -1.4449   -0.5878 H   0  0  0  0  0  0  0  0  0  0  0  0
    0.7725    1.0261    1.0486 H   0  0  0  0  0  0  0  0  0  0  0  0
    0.6223   -0.6639    1.4984 H   0  0  0  0  0  0  0  0  0  0  0  0
    0.7270    0.4083   -1.3660 H   0  0  0  0  0  0  0  0  0  0  0  0
    0.5323   -1.2996   -0.9426 H   0  0  0  0  0  0  0  0  0  0  0  0
    2.8825   -0.8476   -1.4672 H   0  0  0  0  0  0  0  0  0  0  0  0
    2.7437   -1.2346    0.2553 H   0  0  0  0  0  0  0  0  0  0  0  0
    2.8462    1.3749   -0.8739 H   0  0  0  0  0  0  0  0  0  0  0  0
  1  2  1  0
  2  3  1  0
  2  4  1  0
  4  5  1  0
  5  6  1  0
  6  7  1  0
  1  8  1  0
  1  9  1  0
  1 10  1  0
  2 11  1  0
  3 12  1  0
  3 13  1  0
  3 14  1  0
  4 15  1  0
  4 16  1  0
  5 17  1  0
  5 18  1  0
  6 19  1  0
  6 20  1  0
  7 21  1  0
M  END
>  <Energy>  (14) 
4.232721306811333

>  <Real charge>  (14) 
0

>  <Mult>  (14) 
1

$$$$
