mol_593 198
     RDKit          3D

 36 38  0  0  0  0  0  0  0  0999 V2000
    0.5080   -0.7131   -1.9157 C   0  0  0  0  0  0  0  0  0  0  0  0
    0.5638   -0.8677   -0.4390 N   0  0  0  0  0  0  0  0  0  0  0  0
    0.3198    0.3425    0.3179 C   0  0  0  0  0  0  0  0  0  0  0  0
    1.3495    1.1657    0.6162 C   0  0  0  0  0  0  0  0  0  0  0  0
    1.1859    2.3775    1.2706 O   0  0  0  0  0  0  0  0  0  0  0  0
    2.7566    0.8592    0.2753 C   0  0  0  0  0  0  0  0  0  0  0  0
    3.7305    1.8636    0.1910 C   0  0  0  0  0  0  0  0  0  0  0  0
    5.0559    1.5520   -0.1353 C   0  0  0  0  0  0  0  0  0  0  0  0
    5.4311    0.2307   -0.3799 C   0  0  0  0  0  0  0  0  0  0  0  0
    4.4838   -0.7854   -0.2927 C   0  0  0  0  0  0  0  0  0  0  0  0
    3.1680   -0.4573    0.0452 C   0  0  0  0  0  0  0  0  0  0  0  0
    1.9370   -1.7107    0.1401 S   0  0  0  0  0  6  0  0  0  0  0  0
    1.7347   -2.0168    1.5393 O   0  0  0  0  0  0  0  0  0  0  0  0
    2.2676   -2.7379   -0.8256 O   0  0  0  0  0  0  0  0  0  0  0  0
   -1.0987    0.6760    0.6876 C   0  0  0  0  0  0  0  0  0  0  0  0
   -1.3637    1.7677    1.1841 O   0  0  0  0  0  0  0  0  0  0  0  0
   -1.9693   -0.3414    0.4049 N   0  0  0  0  0  0  0  0  0  0  0  0
   -3.3477   -0.3904    0.5898 C   0  0  0  0  0  0  0  0  0  0  0  0
   -4.0991    0.6458    1.1261 C   0  0  0  0  0  0  0  0  0  0  0  0
   -5.4768    0.4765    1.2603 C   0  0  0  0  0  0  0  0  0  0  0  0
   -6.0610   -0.7162    0.8567 C   0  0  0  0  0  0  0  0  0  0  0  0
   -5.2372   -1.6945    0.3312 C   0  0  0  0  0  0  0  0  0  0  0  0
   -3.9004   -1.5550    0.1878 N   0  0  0  0  0  0  0  0  0  0  0  0
   -0.3848   -0.1470   -2.2023 H   0  0  0  0  0  0  0  0  0  0  0  0
    0.4302   -1.6949   -2.3919 H   0  0  0  0  0  0  0  0  0  0  0  0
    1.3854   -0.1860   -2.3016 H   0  0  0  0  0  0  0  0  0  0  0  0
    0.2300    2.5060    1.4656 H   0  0  0  0  0  0  0  0  0  0  0  0
    3.4663    2.9033    0.3781 H   0  0  0  0  0  0  0  0  0  0  0  0
    5.7968    2.3464   -0.1955 H   0  0  0  0  0  0  0  0  0  0  0  0
    6.4623   -0.0042   -0.6332 H   0  0  0  0  0  0  0  0  0  0  0  0
    4.7704   -1.8179   -0.4793 H   0  0  0  0  0  0  0  0  0  0  0  0
   -1.5878   -1.2009    0.0260 H   0  0  0  0  0  0  0  0  0  0  0  0
   -3.6526    1.5787    1.4472 H   0  0  0  0  0  0  0  0  0  0  0  0
   -6.0850    1.2727    1.6804 H   0  0  0  0  0  0  0  0  0  0  0  0
   -7.1286   -0.8794    0.9507 H   0  0  0  0  0  0  0  0  0  0  0  0
   -5.6407   -2.6476    0.0010 H   0  0  0  0  0  0  0  0  0  0  0  0
  1  2  1  0
  2  3  1  0
  3  4  2  0
  4  5  1  0
  4  6  1  0
  6  7  2  0
  7  8  1  0
  8  9  2  0
  9 10  1  0
 10 11  2  0
 11 12  1  0
 12 13  2  0
 12 14  2  0
  3 15  1  0
 15 16  2  0
 15 17  1  0
 17 18  1  0
 18 19  2  0
 19 20  1  0
 20 21  2  0
 21 22  1  0
 22 23  2  0
 11  6  1  0
 12  2  1  0
 23 18  1  0
  1 24  1  0
  1 25  1  0
  1 26  1  0
  5 27  1  0
  7 28  1  0
  8 29  1  0
  9 30  1  0
 10 31  1  0
 17 32  1  0
 19 33  1  0
 20 34  1  0
 21 35  1  0
 22 36  1  0
M  END
>  <Energy>  (1) 
-15.875249287325754

>  <Real charge>  (1) 
0

>  <Mult>  (1) 
1

$$$$
