mol_232 59
     RDKit          3D

 23 23  0  0  0  0  0  0  0  0999 V2000
    0.2341    1.6881    1.6179 O   0  0  0  0  0  0  0  0  0  0  0  0
    0.5917    0.7643    0.8927 C   0  0  0  0  0  0  0  0  0  0  0  0
    1.5580   -0.1111    1.3091 N   0  0  0  0  0  0  0  0  0  0  0  0
    2.4955   -0.6005    0.4533 C   0  0  0  0  0  0  0  0  0  0  0  0
    3.6183   -0.9064    0.8407 O   0  0  0  0  0  0  0  0  0  0  0  0
    2.1658   -0.6406   -0.8675 N   0  0  0  0  0  0  0  0  0  0  0  0
    1.1817    0.1336   -1.4236 C   0  0  0  0  0  0  0  0  0  0  0  0
    1.2403    0.4591   -2.6061 O   0  0  0  0  0  0  0  0  0  0  0  0
    0.0312    0.4921   -0.4952 C   0  0  0  0  0  0  0  0  0  0  0  0
   -0.6977    1.7317   -1.0326 C   0  0  0  0  0  0  0  0  0  0  0  0
   -0.9038   -0.7443   -0.4491 C   0  0  0  0  0  0  0  0  0  0  0  0
   -2.1125   -0.6009    0.4373 C   0  0  0  0  0  0  0  0  0  0  0  0
   -2.3211   -1.3286    1.5417 C   0  0  0  0  0  0  0  0  0  0  0  0
    1.9225    0.0822    2.2333 H   0  0  0  0  0  0  0  0  0  0  0  0
    2.9375   -0.8606   -1.4839 H   0  0  0  0  0  0  0  0  0  0  0  0
    0.0004    2.5673   -1.1641 H   0  0  0  0  0  0  0  0  0  0  0  0
   -1.1581    1.5338   -2.0073 H   0  0  0  0  0  0  0  0  0  0  0  0
   -1.4840    2.0761   -0.3525 H   0  0  0  0  0  0  0  0  0  0  0  0
   -0.3392   -1.6367   -0.1452 H   0  0  0  0  0  0  0  0  0  0  0  0
   -1.2620   -0.9654   -1.4641 H   0  0  0  0  0  0  0  0  0  0  0  0
   -2.8652    0.1300    0.1455 H   0  0  0  0  0  0  0  0  0  0  0  0
   -3.2176   -1.1830    2.1383 H   0  0  0  0  0  0  0  0  0  0  0  0
   -1.6156   -2.0802    1.8815 H   0  0  0  0  0  0  0  0  0  0  0  0
  1  2  2  0
  2  3  1  0
  3  4  1  0
  4  5  2  0
  4  6  1  0
  6  7  1  0
  7  8  2  0
  7  9  1  0
  9 10  1  0
  9 11  1  0
 11 12  1  0
 12 13  2  3
  9  2  1  0
  3 14  1  0
  6 15  1  0
 10 16  1  0
 10 17  1  0
 10 18  1  0
 11 19  1  0
 11 20  1  0
 12 21  1  0
 13 22  1  0
 13 23  1  0
M  END
>  <Energy>  (1) 
-121.15009130016605

>  <Real charge>  (1) 
0

>  <Mult>  (1) 
1

$$$$
mol_232 295
     RDKit          3D

 23 23  0  0  0  0  0  0  0  0999 V2000
   -0.8521   -1.2463    2.3264 O   0  0  0  0  0  0  0  0  0  0  0  0
   -1.0166   -0.4770    1.3836 C   0  0  0  0  0  0  0  0  0  0  0  0
   -1.9952    0.4791    1.4344 N   0  0  0  0  0  0  0  0  0  0  0  0
   -2.6398    0.9388    0.3275 C   0  0  0  0  0  0  0  0  0  0  0  0
   -3.7825    1.3797    0.3898 O   0  0  0  0  0  0  0  0  0  0  0  0
   -1.9982    0.7957   -0.8638 N   0  0  0  0  0  0  0  0  0  0  0  0
   -1.0373   -0.1567   -1.0718 C   0  0  0  0  0  0  0  0  0  0  0  0
   -0.9134   -0.6802   -2.1754 O   0  0  0  0  0  0  0  0  0  0  0  0
   -0.1561   -0.4655    0.1287 C   0  0  0  0  0  0  0  0  0  0  0  0
    0.5236   -1.8317   -0.0393 C   0  0  0  0  0  0  0  0  0  0  0  0
    0.8839    0.6711    0.3110 C   0  0  0  0  0  0  0  0  0  0  0  0
    1.9165    0.7746   -0.7815 C   0  0  0  0  0  0  0  0  0  0  0  0
    3.2328    0.6344   -0.5801 C   0  0  0  0  0  0  0  0  0  0  0  0
   -2.5709    0.4536    2.2663 H   0  0  0  0  0  0  0  0  0  0  0  0
   -2.5843    0.9846   -1.6670 H   0  0  0  0  0  0  0  0  0  0  0  0
    1.0971   -1.8969   -0.9704 H   0  0  0  0  0  0  0  0  0  0  0  0
    1.2058   -2.0438    0.7919 H   0  0  0  0  0  0  0  0  0  0  0  0
   -0.2213   -2.6363   -0.0655 H   0  0  0  0  0  0  0  0  0  0  0  0
    0.3796    1.6451    0.3695 H   0  0  0  0  0  0  0  0  0  0  0  0
    1.3855    0.5452    1.2809 H   0  0  0  0  0  0  0  0  0  0  0  0
    1.5639    0.9831   -1.7910 H   0  0  0  0  0  0  0  0  0  0  0  0
    3.6466    0.4280    0.4024 H   0  0  0  0  0  0  0  0  0  0  0  0
    3.9324    0.7212   -1.4066 H   0  0  0  0  0  0  0  0  0  0  0  0
  1  2  2  0
  2  3  1  0
  3  4  1  0
  4  5  2  0
  4  6  1  0
  6  7  1  0
  7  8  2  0
  7  9  1  0
  9 10  1  0
  9 11  1  0
 11 12  1  0
 12 13  2  3
  9  2  1  0
  3 14  1  0
  6 15  1  0
 10 16  1  0
 10 17  1  0
 10 18  1  0
 11 19  1  0
 11 20  1  0
 12 21  1  0
 13 22  1  0
 13 23  1  0
M  END
>  <Energy>  (2) 
-121.11898459261734

>  <Real charge>  (2) 
0

>  <Mult>  (2) 
1

$$$$
mol_232 337
     RDKit          3D

 23 23  0  0  0  0  0  0  0  0999 V2000
    0.4061    0.4096    2.1641 O   0  0  0  0  0  0  0  0  0  0  0  0
   -0.3649    0.1842    1.2336 C   0  0  0  0  0  0  0  0  0  0  0  0
   -1.6695    0.5878    1.3186 N   0  0  0  0  0  0  0  0  0  0  0  0
   -2.5211    0.7064    0.2659 C   0  0  0  0  0  0  0  0  0  0  0  0
   -3.5380    1.3884    0.3376 O   0  0  0  0  0  0  0  0  0  0  0  0
   -2.1573    0.0954   -0.8922 N   0  0  0  0  0  0  0  0  0  0  0  0
   -0.8791   -0.2907   -1.1861 C   0  0  0  0  0  0  0  0  0  0  0  0
   -0.5289   -0.4139   -2.3578 O   0  0  0  0  0  0  0  0  0  0  0  0
    0.0062   -0.6222    0.0015 C   0  0  0  0  0  0  0  0  0  0  0  0
   -0.2607   -2.1003    0.3512 C   0  0  0  0  0  0  0  0  0  0  0  0
    1.5007   -0.4457   -0.3439 C   0  0  0  0  0  0  0  0  0  0  0  0
    1.8788    0.9476   -0.7842 C   0  0  0  0  0  0  0  0  0  0  0  0
    2.5633    1.8133   -0.0267 C   0  0  0  0  0  0  0  0  0  0  0  0
   -1.9061    1.1362    2.1344 H   0  0  0  0  0  0  0  0  0  0  0  0
   -2.7369    0.3196   -1.6902 H   0  0  0  0  0  0  0  0  0  0  0  0
   -1.3107   -2.2726    0.6167 H   0  0  0  0  0  0  0  0  0  0  0  0
   -0.0279   -2.7561   -0.4958 H   0  0  0  0  0  0  0  0  0  0  0  0
    0.3469   -2.4218    1.2051 H   0  0  0  0  0  0  0  0  0  0  0  0
    2.1186   -0.7374    0.5164 H   0  0  0  0  0  0  0  0  0  0  0  0
    1.7825   -1.1307   -1.1549 H   0  0  0  0  0  0  0  0  0  0  0  0
    1.5980    1.2408   -1.7954 H   0  0  0  0  0  0  0  0  0  0  0  0
    2.8746    1.5646    0.9844 H   0  0  0  0  0  0  0  0  0  0  0  0
    2.8252    2.7978   -0.4023 H   0  0  0  0  0  0  0  0  0  0  0  0
  1  2  2  0
  2  3  1  0
  3  4  1  0
  4  5  2  0
  4  6  1  0
  6  7  1  0
  7  8  2  0
  7  9  1  0
  9 10  1  0
  9 11  1  0
 11 12  1  0
 12 13  2  3
  9  2  1  0
  3 14  1  0
  6 15  1  0
 10 16  1  0
 10 17  1  0
 10 18  1  0
 11 19  1  0
 11 20  1  0
 12 21  1  0
 13 22  1  0
 13 23  1  0
M  END
>  <Energy>  (3) 
-120.98195547386057

>  <Real charge>  (3) 
0

>  <Mult>  (3) 
1

$$$$
mol_232 70
     RDKit          3D

 23 23  0  0  0  0  0  0  0  0999 V2000
   -0.4406   -1.8252   -1.2944 O   0  0  0  0  0  0  0  0  0  0  0  0
   -0.9088   -0.9592   -0.5622 C   0  0  0  0  0  0  0  0  0  0  0  0
   -2.2447   -0.9664   -0.2588 N   0  0  0  0  0  0  0  0  0  0  0  0
   -2.9605    0.1844   -0.1376 C   0  0  0  0  0  0  0  0  0  0  0  0
   -4.1561    0.2251   -0.4083 O   0  0  0  0  0  0  0  0  0  0  0  0
   -2.2698    1.3091    0.1949 N   0  0  0  0  0  0  0  0  0  0  0  0
   -0.9250    1.4494   -0.0267 C   0  0  0  0  0  0  0  0  0  0  0  0
   -0.4513    2.5566   -0.2649 O   0  0  0  0  0  0  0  0  0  0  0  0
   -0.1096    0.1659    0.0841 C   0  0  0  0  0  0  0  0  0  0  0  0
    0.0545   -0.1461    1.5847 C   0  0  0  0  0  0  0  0  0  0  0  0
    1.2633    0.3686   -0.6030 C   0  0  0  0  0  0  0  0  0  0  0  0
    2.2826   -0.7205   -0.3740 C   0  0  0  0  0  0  0  0  0  0  0  0
    3.4313   -0.5459    0.2919 C   0  0  0  0  0  0  0  0  0  0  0  0
   -2.7664   -1.7168   -0.6939 H   0  0  0  0  0  0  0  0  0  0  0  0
   -2.8059    2.1628    0.1069 H   0  0  0  0  0  0  0  0  0  0  0  0
    0.5115   -1.1290    1.7446 H   0  0  0  0  0  0  0  0  0  0  0  0
   -0.9061   -0.1574    2.1131 H   0  0  0  0  0  0  0  0  0  0  0  0
    0.6795    0.6090    2.0755 H   0  0  0  0  0  0  0  0  0  0  0  0
    1.1175    0.4657   -1.6875 H   0  0  0  0  0  0  0  0  0  0  0  0
    1.6984    1.3242   -0.2798 H   0  0  0  0  0  0  0  0  0  0  0  0
    2.0700   -1.6988   -0.8036 H   0  0  0  0  0  0  0  0  0  0  0  0
    3.7034    0.4110    0.7266 H   0  0  0  0  0  0  0  0  0  0  0  0
    4.1328   -1.3665    0.4102 H   0  0  0  0  0  0  0  0  0  0  0  0
  1  2  2  0
  2  3  1  0
  3  4  1  0
  4  5  2  0
  4  6  1  0
  6  7  1  0
  7  8  2  0
  7  9  1  0
  9 10  1  0
  9 11  1  0
 11 12  1  0
 12 13  2  3
  9  2  1  0
  3 14  1  0
  6 15  1  0
 10 16  1  0
 10 17  1  0
 10 18  1  0
 11 19  1  0
 11 20  1  0
 12 21  1  0
 13 22  1  0
 13 23  1  0
M  END
>  <Energy>  (4) 
-120.70760470585864

>  <Real charge>  (4) 
0

>  <Mult>  (4) 
1

$$$$
mol_232 278
     RDKit          3D

 23 23  0  0  0  0  0  0  0  0999 V2000
   -1.5402   -2.0543   -0.9538 O   0  0  0  0  0  0  0  0  0  0  0  0
   -1.1833   -0.9264   -0.6195 C   0  0  0  0  0  0  0  0  0  0  0  0
   -1.6074    0.1625   -1.3288 N   0  0  0  0  0  0  0  0  0  0  0  0
   -1.6451    1.4328   -0.8454 C   0  0  0  0  0  0  0  0  0  0  0  0
   -2.3570    2.2904   -1.3578 O   0  0  0  0  0  0  0  0  0  0  0  0
   -0.9249    1.6862    0.2787 N   0  0  0  0  0  0  0  0  0  0  0  0
   -0.4510    0.7256    1.1277 C   0  0  0  0  0  0  0  0  0  0  0  0
   -0.1934    1.0098    2.2958 O   0  0  0  0  0  0  0  0  0  0  0  0
   -0.2325   -0.6535    0.5312 C   0  0  0  0  0  0  0  0  0  0  0  0
   -0.4685   -1.7089    1.6278 C   0  0  0  0  0  0  0  0  0  0  0  0
    1.2324   -0.7727    0.0422 C   0  0  0  0  0  0  0  0  0  0  0  0
    1.6463    0.1548   -1.0720 C   0  0  0  0  0  0  0  0  0  0  0  0
    2.4487    1.2132   -0.9030 C   0  0  0  0  0  0  0  0  0  0  0  0
   -2.2511   -0.0290   -2.0846 H   0  0  0  0  0  0  0  0  0  0  0  0
   -1.0717    2.5988    0.6875 H   0  0  0  0  0  0  0  0  0  0  0  0
   -0.3090   -2.7260    1.2517 H   0  0  0  0  0  0  0  0  0  0  0  0
   -1.4964   -1.6556    2.0061 H   0  0  0  0  0  0  0  0  0  0  0  0
    0.2038   -1.5637    2.4812 H   0  0  0  0  0  0  0  0  0  0  0  0
    1.9078   -0.6267    0.8970 H   0  0  0  0  0  0  0  0  0  0  0  0
    1.4172   -1.7965   -0.3111 H   0  0  0  0  0  0  0  0  0  0  0  0
    1.2948   -0.0801   -2.0758 H   0  0  0  0  0  0  0  0  0  0  0  0
    2.7333    1.8363   -1.7463 H   0  0  0  0  0  0  0  0  0  0  0  0
    2.8473    1.4829    0.0712 H   0  0  0  0  0  0  0  0  0  0  0  0
  1  2  2  0
  2  3  1  0
  3  4  1  0
  4  5  2  0
  4  6  1  0
  6  7  1  0
  7  8  2  0
  7  9  1  0
  9 10  1  0
  9 11  1  0
 11 12  1  0
 12 13  2  3
  9  2  1  0
  3 14  1  0
  6 15  1  0
 10 16  1  0
 10 17  1  0
 10 18  1  0
 11 19  1  0
 11 20  1  0
 12 21  1  0
 13 22  1  0
 13 23  1  0
M  END
>  <Energy>  (5) 
-120.5195549752145

>  <Real charge>  (5) 
0

>  <Mult>  (5) 
1

$$$$
