mol_147 54
     RDKit          3D

  6  5  0  0  0  0  0  0  0  0999 V2000
   -0.3707    0.0093    0.0182 C   0  0  0  0  0  0  0  0  0  0  0  0
    0.9235    0.5286   -0.2261 O   0  0  0  0  0  0  0  0  0  0  0  0
   -0.4514   -0.2924    1.0654 H   0  0  0  0  0  0  0  0  0  0  0  0
   -0.5491   -0.8489   -0.6343 H   0  0  0  0  0  0  0  0  0  0  0  0
   -1.1105    0.7849   -0.1932 H   0  0  0  0  0  0  0  0  0  0  0  0
    1.5581   -0.1815   -0.0301 H   0  0  0  0  0  0  0  0  0  0  0  0
  1  2  1  0
  1  3  1  0
  1  4  1  0
  1  5  1  0
  2  6  1  0
M  END
>  <Energy>  (1) 
0.6657707205999559

>  <Real charge>  (1) 
0

>  <Mult>  (1) 
1

$$$$
