mol_917 6
     RDKit          3D

 15 16  0  0  0  0  0  0  0  0999 V2000
   -1.8989    0.5927    0.2001 C   0  0  0  0  0  0  0  0  0  0  0  0
   -1.8299   -0.7928    0.0442 C   0  0  0  0  0  0  0  0  0  0  0  0
   -0.6019   -1.4444   -0.1144 C   0  0  0  0  0  0  0  0  0  0  0  0
    0.5454   -0.6453   -0.1092 C   0  0  0  0  0  0  0  0  0  0  0  0
    1.8740   -0.9547   -0.2377 N   0  0  0  0  0  0  0  0  0  0  0  0
    2.6963    0.1089   -0.1805 N   0  0  0  0  0  0  0  0  0  0  0  0
    1.8593    1.1360   -0.0090 C   0  0  0  0  0  0  0  0  0  0  0  0
    0.5056    0.7359    0.0441 C   0  0  0  0  0  0  0  0  0  0  0  0
   -0.7364    1.3741    0.2022 C   0  0  0  0  0  0  0  0  0  0  0  0
   -2.8671    1.0732    0.3215 H   0  0  0  0  0  0  0  0  0  0  0  0
   -2.7478   -1.3772    0.0461 H   0  0  0  0  0  0  0  0  0  0  0  0
   -0.5505   -2.5212   -0.2353 H   0  0  0  0  0  0  0  0  0  0  0  0
    2.2842   -1.8721   -0.3669 H   0  0  0  0  0  0  0  0  0  0  0  0
    2.2657    2.1356    0.0709 H   0  0  0  0  0  0  0  0  0  0  0  0
   -0.7980    2.4512    0.3239 H   0  0  0  0  0  0  0  0  0  0  0  0
  1  2  2  0
  2  3  1  0
  3  4  2  0
  4  5  1  0
  5  6  1  0
  6  7  2  0
  7  8  1  0
  8  9  2  0
  8  4  1  0
  9  1  1  0
  1 10  1  0
  2 11  1  0
  3 12  1  0
  5 13  1  0
  7 14  1  0
  9 15  1  0
M  END
>  <Energy>  (1) 
27.64261618300204

>  <Real charge>  (1) 
0

>  <Mult>  (1) 
1

$$$$
