mol_785 11
     RDKit          3D

 13 13  0  0  0  0  0  0  0  0999 V2000
   -1.9580    1.4789   -0.4572 O   0  0  0  0  0  0  0  0  0  0  0  0
   -0.9051    0.6276   -0.2253 C   0  0  0  0  0  0  0  0  0  0  0  0
   -1.0152   -0.7141   -0.6046 C   0  0  0  0  0  0  0  0  0  0  0  0
   -2.4423   -1.3253   -1.3571 Cl  0  0  0  0  0  0  0  0  0  0  0  0
    0.0445   -1.5936   -0.3768 C   0  0  0  0  0  0  0  0  0  0  0  0
    1.2157   -1.1345    0.2302 C   0  0  0  0  0  0  0  0  0  0  0  0
    1.3308    0.2062    0.6114 C   0  0  0  0  0  0  0  0  0  0  0  0
    2.8090    0.7014    1.3566 Cl  0  0  0  0  0  0  0  0  0  0  0  0
    0.2695    1.0923    0.3845 C   0  0  0  0  0  0  0  0  0  0  0  0
    0.3613    2.7631    0.8378 Cl  0  0  0  0  0  0  0  0  0  0  0  0
   -1.7097    2.3649   -0.1328 H   0  0  0  0  0  0  0  0  0  0  0  0
   -0.0359   -2.6382   -0.6699 H   0  0  0  0  0  0  0  0  0  0  0  0
    2.0355   -1.8287    0.4030 H   0  0  0  0  0  0  0  0  0  0  0  0
  1  2  1  0
  2  3  2  0
  3  4  1  0
  3  5  1  0
  5  6  2  0
  6  7  1  0
  7  8  1  0
  7  9  2  0
  9 10  1  0
  9  2  1  0
  1 11  1  0
  5 12  1  0
  6 13  1  0
M  END
>  <Energy>  (1) 
36.56810841914475

>  <Real charge>  (1) 
0

>  <Mult>  (1) 
1

$$$$
