mol_7 37
     RDKit          3D

 22 23  0  0  0  0  0  0  0  0999 V2000
    5.2347   -0.4365    0.0382 Cl  0  0  0  0  0  0  0  0  0  0  0  0
    3.5207   -0.2936    0.0257 C   0  0  0  0  0  0  0  0  0  0  0  0
    2.8691    0.0879   -1.1414 C   0  0  0  0  0  0  0  0  0  0  0  0
    1.4760    0.2037   -1.1503 C   0  0  0  0  0  0  0  0  0  0  0  0
    0.7331    0.6834   -2.6405 Cl  0  0  0  0  0  0  0  0  0  0  0  0
    0.7105   -0.0592    0.0052 C   0  0  0  0  0  0  0  0  0  0  0  0
    1.4051   -0.4439    1.1713 C   0  0  0  0  0  0  0  0  0  0  0  0
    0.5714   -0.7922    2.6500 Cl  0  0  0  0  0  0  0  0  0  0  0  0
    2.7981   -0.5604    1.1828 C   0  0  0  0  0  0  0  0  0  0  0  0
   -0.7642    0.0637   -0.0056 C   0  0  0  0  0  0  0  0  0  0  0  0
   -1.5885   -1.0317   -0.3363 C   0  0  0  0  0  0  0  0  0  0  0  0
   -0.9209   -2.5773   -0.7470 Cl  0  0  0  0  0  0  0  0  0  0  0  0
   -2.9832   -0.9142   -0.3462 C   0  0  0  0  0  0  0  0  0  0  0  0
   -3.5863    0.2991   -0.0262 C   0  0  0  0  0  0  0  0  0  0  0  0
   -2.7953    1.3961    0.3040 C   0  0  0  0  0  0  0  0  0  0  0  0
   -1.4004    1.2809    0.3145 C   0  0  0  0  0  0  0  0  0  0  0  0
   -0.4921    2.6951    0.7367 Cl  0  0  0  0  0  0  0  0  0  0  0  0
    3.4415    0.2949   -2.0424 H   0  0  0  0  0  0  0  0  0  0  0  0
    3.3152   -0.8583    2.0917 H   0  0  0  0  0  0  0  0  0  0  0  0
   -3.6045   -1.7693   -0.6037 H   0  0  0  0  0  0  0  0  0  0  0  0
   -4.6700    0.3894   -0.0341 H   0  0  0  0  0  0  0  0  0  0  0  0
   -3.2700    2.3426    0.5535 H   0  0  0  0  0  0  0  0  0  0  0  0
  1  2  1  0
  2  3  2  0
  3  4  1  0
  4  5  1  0
  4  6  2  0
  6  7  1  0
  7  8  1  0
  7  9  2  0
  6 10  1  0
 10 11  2  0
 11 12  1  0
 11 13  1  0
 13 14  2  0
 14 15  1  0
 15 16  2  0
 16 17  1  0
  9  2  1  0
 16 10  1  0
  3 18  1  0
  9 19  1  0
 13 20  1  0
 14 21  1  0
 15 22  1  0
M  END
>  <Energy>  (1) 
27.00330555161097

>  <Real charge>  (1) 
0

>  <Mult>  (1) 
1

$$$$
