mol_542 63
     RDKit          3D

 54 57  0  0  0  0  0  0  0  0999 V2000
   -4.7169    1.8082   -0.1512 C   0  0  0  0  0  0  0  0  0  0  0  0
   -4.4504    0.4091   -0.6373 C   0  0  0  0  0  0  0  0  0  0  0  0
   -5.0667   -0.0425   -1.6104 O   0  0  0  0  0  0  0  0  0  0  0  0
   -3.4217   -0.4778    0.0911 C   0  0  0  0  0  0  0  0  0  0  0  0
   -3.9970   -1.7993    0.1172 O   0  0  0  0  0  0  0  0  0  0  0  0
   -3.1233   -0.1166    1.5506 C   0  0  0  0  0  0  0  0  0  0  0  0
   -1.6934   -0.6050    1.8232 C   0  0  0  0  0  0  0  0  0  0  0  0
   -1.1798   -1.2254    0.5112 C   0  0  0  0  0  0  0  0  0  0  0  0
    0.3482   -1.1575    0.2919 C   0  0  0  0  0  0  0  0  0  0  0  0
    1.1066   -1.7667    1.4807 C   0  0  0  0  0  0  0  0  0  0  0  0
    2.6066   -1.7977    1.2237 C   0  0  0  0  0  0  0  0  0  0  0  0
    3.1418   -0.4254    0.8910 C   0  0  0  0  0  0  0  0  0  0  0  0
    4.2093    0.0510    1.5565 C   0  0  0  0  0  0  0  0  0  0  0  0
    4.8488    1.3347    1.1889 C   0  0  0  0  0  0  0  0  0  0  0  0
    5.7971    1.7497    1.8503 O   0  0  0  0  0  0  0  0  0  0  0  0
    4.3574    2.0404   -0.0465 C   0  0  0  0  0  0  0  0  0  0  0  0
    2.8587    1.8347   -0.2148 C   0  0  0  0  0  0  0  0  0  0  0  0
    2.4267    0.3372   -0.2318 C   0  0  0  0  0  0  0  0  0  0  0  0
    2.8494   -0.2887   -1.5806 C   0  0  0  0  0  0  0  0  0  0  0  0
    0.8634    0.2734   -0.0091 C   0  0  0  0  0  0  0  0  0  0  0  0
    0.0519    0.8934   -1.1643 C   0  0  0  0  0  0  0  0  0  0  0  0
   -1.4512    0.8818   -0.8807 C   0  0  0  0  0  0  0  0  0  0  0  0
   -2.0184   -0.5291   -0.5902 C   0  0  0  0  0  0  0  0  0  0  0  0
   -2.0227   -1.3669   -1.8846 C   0  0  0  0  0  0  0  0  0  0  0  0
   -5.3900    2.3119   -0.8516 H   0  0  0  0  0  0  0  0  0  0  0  0
   -5.2013    1.7732    0.8274 H   0  0  0  0  0  0  0  0  0  0  0  0
   -3.7916    2.3835   -0.1009 H   0  0  0  0  0  0  0  0  0  0  0  0
   -4.4490   -1.9167   -0.7441 H   0  0  0  0  0  0  0  0  0  0  0  0
   -3.1620    0.9599    1.7420 H   0  0  0  0  0  0  0  0  0  0  0  0
   -3.8260   -0.5945    2.2428 H   0  0  0  0  0  0  0  0  0  0  0  0
   -1.6817   -1.3441    2.6320 H   0  0  0  0  0  0  0  0  0  0  0  0
   -1.0803    0.2399    2.1532 H   0  0  0  0  0  0  0  0  0  0  0  0
   -1.4508   -2.2918    0.5392 H   0  0  0  0  0  0  0  0  0  0  0  0
    0.5620   -1.7837   -0.5846 H   0  0  0  0  0  0  0  0  0  0  0  0
    0.9121   -1.1945    2.3963 H   0  0  0  0  0  0  0  0  0  0  0  0
    0.7535   -2.7889    1.6630 H   0  0  0  0  0  0  0  0  0  0  0  0
    2.8257   -2.4794    0.3929 H   0  0  0  0  0  0  0  0  0  0  0  0
    3.1069   -2.2167    2.1054 H   0  0  0  0  0  0  0  0  0  0  0  0
    4.6968   -0.4955    2.3566 H   0  0  0  0  0  0  0  0  0  0  0  0
    4.5629    3.1113    0.0601 H   0  0  0  0  0  0  0  0  0  0  0  0
    4.9181    1.6700   -0.9103 H   0  0  0  0  0  0  0  0  0  0  0  0
    2.5416    2.3403   -1.1345 H   0  0  0  0  0  0  0  0  0  0  0  0
    2.3527    2.3512    0.6129 H   0  0  0  0  0  0  0  0  0  0  0  0
    2.5074    0.3135   -2.4290 H   0  0  0  0  0  0  0  0  0  0  0  0
    3.9398   -0.3660   -1.6647 H   0  0  0  0  0  0  0  0  0  0  0  0
    2.4491   -1.2989   -1.7120 H   0  0  0  0  0  0  0  0  0  0  0  0
    0.6529    0.8799    0.8841 H   0  0  0  0  0  0  0  0  0  0  0  0
    0.3528    1.9344   -1.3232 H   0  0  0  0  0  0  0  0  0  0  0  0
    0.2488    0.3667   -2.1033 H   0  0  0  0  0  0  0  0  0  0  0  0
   -1.9749    1.3267   -1.7360 H   0  0  0  0  0  0  0  0  0  0  0  0
   -1.6287    1.5529   -0.0323 H   0  0  0  0  0  0  0  0  0  0  0  0
   -2.6718   -0.9153   -2.6421 H   0  0  0  0  0  0  0  0  0  0  0  0
   -1.0238   -1.4555   -2.3216 H   0  0  0  0  0  0  0  0  0  0  0  0
   -2.3755   -2.3888   -1.7094 H   0  0  0  0  0  0  0  0  0  0  0  0
  1  2  1  0
  2  3  2  0
  2  4  1  0
  4  5  1  0
  4  6  1  0
  6  7  1  0
  7  8  1  0
  8  9  1  0
  9 10  1  0
 10 11  1  0
 11 12  1  0
 12 13  2  0
 13 14  1  0
 14 15  2  0
 14 16  1  0
 16 17  1  0
 17 18  1  0
 18 19  1  0
 18 20  1  0
 20 21  1  0
 21 22  1  0
 22 23  1  0
 23 24  1  0
 23  4  1  0
 23  8  1  0
 20  9  1  0
 18 12  1  0
  1 25  1  0
  1 26  1  0
  1 27  1  0
  5 28  1  0
  6 29  1  0
  6 30  1  0
  7 31  1  0
  7 32  1  0
  8 33  1  0
  9 34  1  0
 10 35  1  0
 10 36  1  0
 11 37  1  0
 11 38  1  0
 13 39  1  0
 16 40  1  0
 16 41  1  0
 17 42  1  0
 17 43  1  0
 19 44  1  0
 19 45  1  0
 19 46  1  0
 20 47  1  0
 21 48  1  0
 21 49  1  0
 22 50  1  0
 22 51  1  0
 24 52  1  0
 24 53  1  0
 24 54  1  0
M  END
>  <Energy>  (1) 
97.5953782170014

>  <Real charge>  (1) 
0

>  <Mult>  (1) 
1

$$$$
