mol_69 278
     RDKit          3D

 25 24  0  0  0  0  0  0  0  0999 V2000
   -0.8870   -1.7052    0.6948 C   0  0  0  0  0  0  0  0  0  0  0  0
   -0.6103   -0.8987   -0.5694 C   0  0  0  0  0  0  0  0  0  0  0  0
   -0.4385    0.6128   -0.3199 C   0  0  0  0  0  0  0  0  0  0  0  0
   -0.1394    1.4680   -2.1021 Br  0  0  0  0  0  0  0  0  0  0  0  0
   -1.6548    1.3040    0.3346 C   0  0  0  0  0  0  0  0  0  0  0  0
   -3.0095    1.0371   -0.3145 C   0  0  0  0  0  0  0  0  0  0  0  0
    0.8537    0.9176    0.4766 C   0  0  0  0  0  0  0  0  0  0  0  0
    0.8405    1.5489    1.5329 O   0  0  0  0  0  0  0  0  0  0  0  0
    2.0293    0.5054   -0.1164 N   0  0  0  0  0  0  0  0  0  0  0  0
    2.8345   -0.3865    0.5289 C   0  0  0  0  0  0  0  0  0  0  0  0
    3.9324   -0.7134   -0.2121 N   0  0  0  0  0  0  0  0  0  0  0  0
    2.6401   -0.9081    1.6153 O   0  0  0  0  0  0  0  0  0  0  0  0
   -0.9489   -2.7707    0.4502 H   0  0  0  0  0  0  0  0  0  0  0  0
   -0.0914   -1.5785    1.4343 H   0  0  0  0  0  0  0  0  0  0  0  0
   -1.8352   -1.4184    1.1580 H   0  0  0  0  0  0  0  0  0  0  0  0
    0.2867   -1.3166   -1.0439 H   0  0  0  0  0  0  0  0  0  0  0  0
   -1.4253   -1.0790   -1.2815 H   0  0  0  0  0  0  0  0  0  0  0  0
   -1.7241    0.9967    1.3863 H   0  0  0  0  0  0  0  0  0  0  0  0
   -1.4955    2.3906    0.3586 H   0  0  0  0  0  0  0  0  0  0  0  0
   -3.7885    1.5936    0.2176 H   0  0  0  0  0  0  0  0  0  0  0  0
   -3.0341    1.3572   -1.3596 H   0  0  0  0  0  0  0  0  0  0  0  0
   -3.2790   -0.0216   -0.2702 H   0  0  0  0  0  0  0  0  0  0  0  0
    1.9748    0.3031   -1.1041 H   0  0  0  0  0  0  0  0  0  0  0  0
    4.3923    0.0593   -0.6762 H   0  0  0  0  0  0  0  0  0  0  0  0
    4.5772   -1.2975    0.3107 H   0  0  0  0  0  0  0  0  0  0  0  0
  1  2  1  0
  2  3  1  0
  3  4  1  0
  3  5  1  0
  5  6  1  0
  3  7  1  0
  7  8  2  0
  7  9  1  0
  9 10  1  0
 10 11  1  0
 10 12  2  0
  1 13  1  0
  1 14  1  0
  1 15  1  0
  2 16  1  0
  2 17  1  0
  5 18  1  0
  5 19  1  0
  6 20  1  0
  6 21  1  0
  6 22  1  0
  9 23  1  0
 11 24  1  0
 11 25  1  0
M  END
>  <Energy>  (1) 
-76.88370689441307

>  <Real charge>  (1) 
0

>  <Mult>  (1) 
1

$$$$
mol_69 297
     RDKit          3D

 25 24  0  0  0  0  0  0  0  0999 V2000
   -1.7006    1.7128   -0.9470 C   0  0  0  0  0  0  0  0  0  0  0  0
   -0.4600    0.8778   -0.6409 C   0  0  0  0  0  0  0  0  0  0  0  0
   -0.4513    0.1523    0.7221 C   0  0  0  0  0  0  0  0  0  0  0  0
   -0.2689    1.5334    2.1590 Br  0  0  0  0  0  0  0  0  0  0  0  0
   -1.7346   -0.6426    1.0414 C   0  0  0  0  0  0  0  0  0  0  0  0
   -2.1073   -1.6905   -0.0038 C   0  0  0  0  0  0  0  0  0  0  0  0
    0.8185   -0.7183    0.8947 C   0  0  0  0  0  0  0  0  0  0  0  0
    0.7779   -1.8912    1.2653 O   0  0  0  0  0  0  0  0  0  0  0  0
    2.0186   -0.0688    0.7013 N   0  0  0  0  0  0  0  0  0  0  0  0
    2.7472   -0.3855   -0.4062 C   0  0  0  0  0  0  0  0  0  0  0  0
    3.8822    0.3633   -0.5056 N   0  0  0  0  0  0  0  0  0  0  0  0
    2.4533   -1.1939   -1.2729 O   0  0  0  0  0  0  0  0  0  0  0  0
   -1.8487    2.5074   -0.2107 H   0  0  0  0  0  0  0  0  0  0  0  0
   -2.6070    1.1031   -0.9833 H   0  0  0  0  0  0  0  0  0  0  0  0
   -1.5902    2.1897   -1.9268 H   0  0  0  0  0  0  0  0  0  0  0  0
   -0.3425    0.1355   -1.4410 H   0  0  0  0  0  0  0  0  0  0  0  0
    0.4097    1.5413   -0.7288 H   0  0  0  0  0  0  0  0  0  0  0  0
   -1.6277   -1.1527    2.0083 H   0  0  0  0  0  0  0  0  0  0  0  0
   -2.5865    0.0388    1.1611 H   0  0  0  0  0  0  0  0  0  0  0  0
   -3.0025   -2.2325    0.3187 H   0  0  0  0  0  0  0  0  0  0  0  0
   -2.3301   -1.2372   -0.9733 H   0  0  0  0  0  0  0  0  0  0  0  0
   -1.3095   -2.4244   -0.1470 H   0  0  0  0  0  0  0  0  0  0  0  0
    1.9926    0.9324    0.8301 H   0  0  0  0  0  0  0  0  0  0  0  0
    4.4723    0.0553   -1.2718 H   0  0  0  0  0  0  0  0  0  0  0  0
    4.3953    0.4947    0.3570 H   0  0  0  0  0  0  0  0  0  0  0  0
  1  2  1  0
  2  3  1  0
  3  4  1  0
  3  5  1  0
  5  6  1  0
  3  7  1  0
  7  8  2  0
  7  9  1  0
  9 10  1  0
 10 11  1  0
 10 12  2  0
  1 13  1  0
  1 14  1  0
  1 15  1  0
  2 16  1  0
  2 17  1  0
  5 18  1  0
  5 19  1  0
  6 20  1  0
  6 21  1  0
  6 22  1  0
  9 23  1  0
 11 24  1  0
 11 25  1  0
M  END
>  <Energy>  (2) 
-76.45609875528243

>  <Real charge>  (2) 
0

>  <Mult>  (2) 
1

$$$$
mol_69 119
     RDKit          3D

 25 24  0  0  0  0  0  0  0  0999 V2000
   -2.4562   -1.9722    0.2150 C   0  0  0  0  0  0  0  0  0  0  0  0
   -2.0724   -0.4934    0.1744 C   0  0  0  0  0  0  0  0  0  0  0  0
   -0.6168   -0.1453    0.5534 C   0  0  0  0  0  0  0  0  0  0  0  0
   -0.2391   -0.8625    2.3780 Br  0  0  0  0  0  0  0  0  0  0  0  0
   -0.4033    1.3847    0.6580 C   0  0  0  0  0  0  0  0  0  0  0  0
   -0.6904    2.1519   -0.6284 C   0  0  0  0  0  0  0  0  0  0  0  0
    0.4282   -0.7714   -0.3948 C   0  0  0  0  0  0  0  0  0  0  0  0
    0.1157   -1.2952   -1.4632 O   0  0  0  0  0  0  0  0  0  0  0  0
    1.7341   -0.7297    0.0475 N   0  0  0  0  0  0  0  0  0  0  0  0
    2.6628   -0.0323   -0.6682 C   0  0  0  0  0  0  0  0  0  0  0  0
    3.8875   -0.0472   -0.0673 N   0  0  0  0  0  0  0  0  0  0  0  0
    2.4855    0.5917   -1.7023 O   0  0  0  0  0  0  0  0  0  0  0  0
   -3.4672   -2.0989   -0.1873 H   0  0  0  0  0  0  0  0  0  0  0  0
   -1.7837   -2.5911   -0.3842 H   0  0  0  0  0  0  0  0  0  0  0  0
   -2.4683   -2.3635    1.2360 H   0  0  0  0  0  0  0  0  0  0  0  0
   -2.2724   -0.1413   -0.8452 H   0  0  0  0  0  0  0  0  0  0  0  0
   -2.7643    0.0504    0.8307 H   0  0  0  0  0  0  0  0  0  0  0  0
   -1.0445    1.7981    1.4478 H   0  0  0  0  0  0  0  0  0  0  0  0
    0.6277    1.6088    0.9606 H   0  0  0  0  0  0  0  0  0  0  0  0
   -1.7496    2.1020   -0.8969 H   0  0  0  0  0  0  0  0  0  0  0  0
   -0.4369    3.2088   -0.4947 H   0  0  0  0  0  0  0  0  0  0  0  0
   -0.1011    1.7706   -1.4668 H   0  0  0  0  0  0  0  0  0  0  0  0
    1.8483   -0.5676    1.0382 H   0  0  0  0  0  0  0  0  0  0  0  0
    4.5973    0.3844   -0.6504 H   0  0  0  0  0  0  0  0  0  0  0  0
    4.1790   -0.9397    0.3101 H   0  0  0  0  0  0  0  0  0  0  0  0
  1  2  1  0
  2  3  1  0
  3  4  1  0
  3  5  1  0
  5  6  1  0
  3  7  1  0
  7  8  2  0
  7  9  1  0
  9 10  1  0
 10 11  1  0
 10 12  2  0
  1 13  1  0
  1 14  1  0
  1 15  1  0
  2 16  1  0
  2 17  1  0
  5 18  1  0
  5 19  1  0
  6 20  1  0
  6 21  1  0
  6 22  1  0
  9 23  1  0
 11 24  1  0
 11 25  1  0
M  END
>  <Energy>  (3) 
-76.01100026532679

>  <Real charge>  (3) 
0

>  <Mult>  (3) 
1

$$$$
