mol_396 219
     RDKit          3D

 19 18  0  0  0  0  0  0  0  0999 V2000
   -3.1389    0.2630    0.4143 C   0  0  0  0  0  0  0  0  0  0  0  0
   -1.8585   -0.4492    0.0102 C   0  0  0  0  0  0  0  0  0  0  0  0
   -0.6229    0.3562    0.4010 C   0  0  0  0  0  0  0  0  0  0  0  0
    0.6739   -0.3342    0.0079 C   0  0  0  0  0  0  0  0  0  0  0  0
    0.6911   -1.4238   -0.5625 O   0  0  0  0  0  0  0  0  0  0  0  0
    1.9478    0.4128    0.3673 C   0  0  0  0  0  0  0  0  0  0  0  0
    3.2025   -0.3312   -0.0529 C   0  0  0  0  0  0  0  0  0  0  0  0
   -4.0111   -0.3315    0.1248 H   0  0  0  0  0  0  0  0  0  0  0  0
   -3.2158    1.2394   -0.0747 H   0  0  0  0  0  0  0  0  0  0  0  0
   -3.1771    0.4169    1.4975 H   0  0  0  0  0  0  0  0  0  0  0  0
   -1.8279   -1.4364    0.4867 H   0  0  0  0  0  0  0  0  0  0  0  0
   -1.8663   -0.6205   -1.0729 H   0  0  0  0  0  0  0  0  0  0  0  0
   -0.6451    1.3351   -0.0907 H   0  0  0  0  0  0  0  0  0  0  0  0
   -0.6062    0.5105    1.4857 H   0  0  0  0  0  0  0  0  0  0  0  0
    1.9594    0.5659    1.4515 H   0  0  0  0  0  0  0  0  0  0  0  0
    1.9206    1.3906   -0.1250 H   0  0  0  0  0  0  0  0  0  0  0  0
    3.2206   -0.4913   -1.1360 H   0  0  0  0  0  0  0  0  0  0  0  0
    4.0945    0.2392    0.2235 H   0  0  0  0  0  0  0  0  0  0  0  0
    3.2593   -1.3115    0.4319 H   0  0  0  0  0  0  0  0  0  0  0  0
  1  2  1  0
  2  3  1  0
  3  4  1  0
  4  5  2  0
  4  6  1  0
  6  7  1  0
  1  8  1  0
  1  9  1  0
  1 10  1  0
  2 11  1  0
  2 12  1  0
  3 13  1  0
  3 14  1  0
  6 15  1  0
  6 16  1  0
  7 17  1  0
  7 18  1  0
  7 19  1  0
M  END
>  <Energy>  (1) 
-0.9689593195484542

>  <Real charge>  (1) 
0

>  <Mult>  (1) 
1

$$$$
mol_396 109
     RDKit          3D

 19 18  0  0  0  0  0  0  0  0999 V2000
    2.5696    0.6505    0.2849 C   0  0  0  0  0  0  0  0  0  0  0  0
    1.9895   -0.7340    0.0316 C   0  0  0  0  0  0  0  0  0  0  0  0
    0.5575   -0.8724    0.5430 C   0  0  0  0  0  0  0  0  0  0  0  0
   -0.4728   -0.1353   -0.3006 C   0  0  0  0  0  0  0  0  0  0  0  0
   -0.2019    0.3422   -1.4012 O   0  0  0  0  0  0  0  0  0  0  0  0
   -1.8701   -0.0592    0.2928 C   0  0  0  0  0  0  0  0  0  0  0  0
   -2.8471    0.6838   -0.6005 C   0  0  0  0  0  0  0  0  0  0  0  0
    2.0042    1.4262   -0.2400 H   0  0  0  0  0  0  0  0  0  0  0  0
    2.5653    0.8871    1.3538 H   0  0  0  0  0  0  0  0  0  0  0  0
    3.6056    0.6942   -0.0661 H   0  0  0  0  0  0  0  0  0  0  0  0
    2.6184   -1.4709    0.5450 H   0  0  0  0  0  0  0  0  0  0  0  0
    2.0405   -0.9610   -1.0395 H   0  0  0  0  0  0  0  0  0  0  0  0
    0.2756   -1.9315    0.5358 H   0  0  0  0  0  0  0  0  0  0  0  0
    0.4911   -0.5087    1.5742 H   0  0  0  0  0  0  0  0  0  0  0  0
   -1.8029    0.4482    1.2607 H   0  0  0  0  0  0  0  0  0  0  0  0
   -2.2274   -1.0813    0.4561 H   0  0  0  0  0  0  0  0  0  0  0  0
   -3.8375    0.7182   -0.1364 H   0  0  0  0  0  0  0  0  0  0  0  0
   -2.5153    1.7125   -0.7759 H   0  0  0  0  0  0  0  0  0  0  0  0
   -2.9424    0.1916   -1.5741 H   0  0  0  0  0  0  0  0  0  0  0  0
  1  2  1  0
  2  3  1  0
  3  4  1  0
  4  5  2  0
  4  6  1  0
  6  7  1  0
  1  8  1  0
  1  9  1  0
  1 10  1  0
  2 11  1  0
  2 12  1  0
  3 13  1  0
  3 14  1  0
  6 15  1  0
  6 16  1  0
  7 17  1  0
  7 18  1  0
  7 19  1  0
M  END
>  <Energy>  (2) 
-0.8923704450166691

>  <Real charge>  (2) 
0

>  <Mult>  (2) 
1

$$$$
mol_396 59
     RDKit          3D

 19 18  0  0  0  0  0  0  0  0999 V2000
   -2.3918   -0.1024    0.6777 C   0  0  0  0  0  0  0  0  0  0  0  0
   -1.7070   -0.1468   -0.6806 C   0  0  0  0  0  0  0  0  0  0  0  0
   -0.5011   -1.0789   -0.7013 C   0  0  0  0  0  0  0  0  0  0  0  0
    0.6371   -0.5908    0.1756 C   0  0  0  0  0  0  0  0  0  0  0  0
    0.8772   -1.1362    1.2529 O   0  0  0  0  0  0  0  0  0  0  0  0
    1.4363    0.5970   -0.3330 C   0  0  0  0  0  0  0  0  0  0  0  0
    2.6596    0.8822    0.5202 C   0  0  0  0  0  0  0  0  0  0  0  0
   -3.2824    0.5324    0.6296 H   0  0  0  0  0  0  0  0  0  0  0  0
   -2.7058   -1.1028    0.9920 H   0  0  0  0  0  0  0  0  0  0  0  0
   -1.7290    0.3085    1.4454 H   0  0  0  0  0  0  0  0  0  0  0  0
   -2.4318   -0.4940   -1.4263 H   0  0  0  0  0  0  0  0  0  0  0  0
   -1.4154    0.8688   -0.9698 H   0  0  0  0  0  0  0  0  0  0  0  0
   -0.7864   -2.0850   -0.3722 H   0  0  0  0  0  0  0  0  0  0  0  0
   -0.1193   -1.1808   -1.7234 H   0  0  0  0  0  0  0  0  0  0  0  0
    0.7857    1.4766   -0.3428 H   0  0  0  0  0  0  0  0  0  0  0  0
    1.7542    0.3831   -1.3588 H   0  0  0  0  0  0  0  0  0  0  0  0
    2.3739    1.1245    1.5491 H   0  0  0  0  0  0  0  0  0  0  0  0
    3.3270    0.0147    0.5529 H   0  0  0  0  0  0  0  0  0  0  0  0
    3.2190    1.7300    0.1129 H   0  0  0  0  0  0  0  0  0  0  0  0
  1  2  1  0
  2  3  1  0
  3  4  1  0
  4  5  2  0
  4  6  1  0
  6  7  1  0
  1  8  1  0
  1  9  1  0
  1 10  1  0
  2 11  1  0
  2 12  1  0
  3 13  1  0
  3 14  1  0
  6 15  1  0
  6 16  1  0
  7 17  1  0
  7 18  1  0
  7 19  1  0
M  END
>  <Energy>  (3) 
-0.3690377561111587

>  <Real charge>  (3) 
0

>  <Mult>  (3) 
1

$$$$
mol_396 130
     RDKit          3D

 19 18  0  0  0  0  0  0  0  0999 V2000
    2.9601    0.2786   -0.5477 C   0  0  0  0  0  0  0  0  0  0  0  0
    1.4677    0.1476   -0.8032 C   0  0  0  0  0  0  0  0  0  0  0  0
    0.7694   -0.5858    0.3343 C   0  0  0  0  0  0  0  0  0  0  0  0
   -0.7077   -0.7545    0.0409 C   0  0  0  0  0  0  0  0  0  0  0  0
   -1.1309   -1.7849   -0.4828 O   0  0  0  0  0  0  0  0  0  0  0  0
   -1.6110    0.4144    0.3950 C   0  0  0  0  0  0  0  0  0  0  0  0
   -3.0741    0.1281    0.1079 C   0  0  0  0  0  0  0  0  0  0  0  0
    3.4415    0.8085   -1.3756 H   0  0  0  0  0  0  0  0  0  0  0  0
    3.1525    0.8395    0.3724 H   0  0  0  0  0  0  0  0  0  0  0  0
    3.4303   -0.7056   -0.4554 H   0  0  0  0  0  0  0  0  0  0  0  0
    1.0350    1.1466   -0.9308 H   0  0  0  0  0  0  0  0  0  0  0  0
    1.3059   -0.3867   -1.7470 H   0  0  0  0  0  0  0  0  0  0  0  0
    0.8840   -0.0504    1.2833 H   0  0  0  0  0  0  0  0  0  0  0  0
    1.2028   -1.5826    0.4774 H   0  0  0  0  0  0  0  0  0  0  0  0
   -1.2906    1.2880   -0.1812 H   0  0  0  0  0  0  0  0  0  0  0  0
   -1.4863    0.6320    1.4608 H   0  0  0  0  0  0  0  0  0  0  0  0
   -3.6921    0.9880    0.3840 H   0  0  0  0  0  0  0  0  0  0  0  0
   -3.4235   -0.7409    0.6752 H   0  0  0  0  0  0  0  0  0  0  0  0
   -3.2329   -0.0797   -0.9555 H   0  0  0  0  0  0  0  0  0  0  0  0
  1  2  1  0
  2  3  1  0
  3  4  1  0
  4  5  2  0
  4  6  1  0
  6  7  1  0
  1  8  1  0
  1  9  1  0
  1 10  1  0
  2 11  1  0
  2 12  1  0
  3 13  1  0
  3 14  1  0
  6 15  1  0
  6 16  1  0
  7 17  1  0
  7 18  1  0
  7 19  1  0
M  END
>  <Energy>  (4) 
-0.20754964472202053

>  <Real charge>  (4) 
0

>  <Mult>  (4) 
1

$$$$
mol_396 48
     RDKit          3D

 19 18  0  0  0  0  0  0  0  0999 V2000
   -2.8994    0.3035    0.7885 C   0  0  0  0  0  0  0  0  0  0  0  0
   -1.8208   -0.2598   -0.1223 C   0  0  0  0  0  0  0  0  0  0  0  0
   -0.4313   -0.0948    0.4871 C   0  0  0  0  0  0  0  0  0  0  0  0
    0.6636   -0.6634   -0.4009 C   0  0  0  0  0  0  0  0  0  0  0  0
    0.4374   -1.1278   -1.5182 O   0  0  0  0  0  0  0  0  0  0  0  0
    2.0769   -0.6075    0.1416 C   0  0  0  0  0  0  0  0  0  0  0  0
    2.6981    0.7542   -0.0950 C   0  0  0  0  0  0  0  0  0  0  0  0
   -3.8859    0.1752    0.3322 H   0  0  0  0  0  0  0  0  0  0  0  0
   -2.7437    1.3723    0.9664 H   0  0  0  0  0  0  0  0  0  0  0  0
   -2.9032   -0.2093    1.7557 H   0  0  0  0  0  0  0  0  0  0  0  0
   -2.0234   -1.3210   -0.3101 H   0  0  0  0  0  0  0  0  0  0  0  0
   -1.8663    0.2481   -1.0931 H   0  0  0  0  0  0  0  0  0  0  0  0
   -0.2215    0.9672    0.6519 H   0  0  0  0  0  0  0  0  0  0  0  0
   -0.3862   -0.6135    1.4512 H   0  0  0  0  0  0  0  0  0  0  0  0
    2.6671   -1.3847   -0.3566 H   0  0  0  0  0  0  0  0  0  0  0  0
    2.0616   -0.8521    1.2087 H   0  0  0  0  0  0  0  0  0  0  0  0
    2.6927    1.0083   -1.1601 H   0  0  0  0  0  0  0  0  0  0  0  0
    2.1497    1.5385    0.4363 H   0  0  0  0  0  0  0  0  0  0  0  0
    3.7345    0.7667    0.2560 H   0  0  0  0  0  0  0  0  0  0  0  0
  1  2  1  0
  2  3  1  0
  3  4  1  0
  4  5  2  0
  4  6  1  0
  6  7  1  0
  1  8  1  0
  1  9  1  0
  1 10  1  0
  2 11  1  0
  2 12  1  0
  3 13  1  0
  3 14  1  0
  6 15  1  0
  6 16  1  0
  7 17  1  0
  7 18  1  0
  7 19  1  0
M  END
>  <Energy>  (5) 
-0.15823415837348648

>  <Real charge>  (5) 
0

>  <Mult>  (5) 
1

$$$$
mol_396 275
     RDKit          3D

 19 18  0  0  0  0  0  0  0  0999 V2000
   -2.7037    0.1611   -0.0303 C   0  0  0  0  0  0  0  0  0  0  0  0
   -1.7133   -0.9764    0.1760 C   0  0  0  0  0  0  0  0  0  0  0  0
   -0.3239   -0.6498   -0.3669 C   0  0  0  0  0  0  0  0  0  0  0  0
    0.4240    0.3863    0.4581 C   0  0  0  0  0  0  0  0  0  0  0  0
    0.1096    0.6619    1.6160 O   0  0  0  0  0  0  0  0  0  0  0  0
    1.6232    1.0442   -0.1940 C   0  0  0  0  0  0  0  0  0  0  0  0
    2.8016    0.0944   -0.2693 C   0  0  0  0  0  0  0  0  0  0  0  0
   -2.3959    1.0639    0.5057 H   0  0  0  0  0  0  0  0  0  0  0  0
   -2.8000    0.4086   -1.0923 H   0  0  0  0  0  0  0  0  0  0  0  0
   -3.6922   -0.1289    0.3398 H   0  0  0  0  0  0  0  0  0  0  0  0
   -2.0932   -1.8647   -0.3424 H   0  0  0  0  0  0  0  0  0  0  0  0
   -1.6620   -1.2262    1.2420 H   0  0  0  0  0  0  0  0  0  0  0  0
    0.2832   -1.5617   -0.3699 H   0  0  0  0  0  0  0  0  0  0  0  0
   -0.4035   -0.2898   -1.3985 H   0  0  0  0  0  0  0  0  0  0  0  0
    1.3373    1.3962   -1.1905 H   0  0  0  0  0  0  0  0  0  0  0  0
    1.8919    1.9288    0.3942 H   0  0  0  0  0  0  0  0  0  0  0  0
    2.5785   -0.7648   -0.9098 H   0  0  0  0  0  0  0  0  0  0  0  0
    3.0613   -0.2885    0.7231 H   0  0  0  0  0  0  0  0  0  0  0  0
    3.6772    0.6054   -0.6811 H   0  0  0  0  0  0  0  0  0  0  0  0
  1  2  1  0
  2  3  1  0
  3  4  1  0
  4  5  2  0
  4  6  1  0
  6  7  1  0
  1  8  1  0
  1  9  1  0
  1 10  1  0
  2 11  1  0
  2 12  1  0
  3 13  1  0
  3 14  1  0
  6 15  1  0
  6 16  1  0
  7 17  1  0
  7 18  1  0
  7 19  1  0
M  END
>  <Energy>  (6) 
-0.13538307085836251

>  <Real charge>  (6) 
0

>  <Mult>  (6) 
1

$$$$
mol_396 286
     RDKit          3D

 19 18  0  0  0  0  0  0  0  0999 V2000
    2.2816   -0.4699    0.7331 C   0  0  0  0  0  0  0  0  0  0  0  0
    1.9214    0.3287   -0.5120 C   0  0  0  0  0  0  0  0  0  0  0  0
    0.4692    0.7999   -0.5049 C   0  0  0  0  0  0  0  0  0  0  0  0
   -0.5371   -0.3144   -0.7474 C   0  0  0  0  0  0  0  0  0  0  0  0
   -0.2106   -1.4279   -1.1577 O   0  0  0  0  0  0  0  0  0  0  0  0
   -1.9893    0.0107   -0.4669 C   0  0  0  0  0  0  0  0  0  0  0  0
   -2.3222   -0.2268    0.9923 C   0  0  0  0  0  0  0  0  0  0  0  0
    2.1193    0.1232    1.6389 H   0  0  0  0  0  0  0  0  0  0  0  0
    3.3373   -0.7579    0.7030 H   0  0  0  0  0  0  0  0  0  0  0  0
    1.6860   -1.3842    0.8109 H   0  0  0  0  0  0  0  0  0  0  0  0
    2.1277   -0.2734   -1.4043 H   0  0  0  0  0  0  0  0  0  0  0  0
    2.5756    1.2072   -0.5607 H   0  0  0  0  0  0  0  0  0  0  0  0
    0.2401    1.2862    0.4492 H   0  0  0  0  0  0  0  0  0  0  0  0
    0.3262    1.5361   -1.3041 H   0  0  0  0  0  0  0  0  0  0  0  0
   -2.1858    1.0497   -0.7507 H   0  0  0  0  0  0  0  0  0  0  0  0
   -2.6142   -0.6210   -1.1078 H   0  0  0  0  0  0  0  0  0  0  0  0
   -3.3803   -0.0215    1.1807 H   0  0  0  0  0  0  0  0  0  0  0  0
   -2.1174   -1.2642    1.2772 H   0  0  0  0  0  0  0  0  0  0  0  0
   -1.7275    0.4195    1.6457 H   0  0  0  0  0  0  0  0  0  0  0  0
  1  2  1  0
  2  3  1  0
  3  4  1  0
  4  5  2  0
  4  6  1  0
  6  7  1  0
  1  8  1  0
  1  9  1  0
  1 10  1  0
  2 11  1  0
  2 12  1  0
  3 13  1  0
  3 14  1  0
  6 15  1  0
  6 16  1  0
  7 17  1  0
  7 18  1  0
  7 19  1  0
M  END
>  <Energy>  (7) 
-0.11661838215151937

>  <Real charge>  (7) 
0

>  <Mult>  (7) 
1

$$$$
