mol_772 31
     RDKit          3D

 24 24  0  0  0  0  0  0  0  0999 V2000
    1.3325    1.1318   -0.3626 C   0  0  0  0  0  0  0  0  0  0  0  0
    1.8848   -0.2931   -0.2804 C   0  0  0  0  0  0  0  0  0  0  0  0
    0.9035   -1.4324   -0.5656 C   0  0  0  0  0  0  0  0  0  0  0  0
   -0.1770   -1.6222    0.4991 C   0  0  0  0  0  0  0  0  0  0  0  0
   -1.5544   -1.0668    0.1369 C   0  0  0  0  0  0  0  0  0  0  0  0
   -1.6124    0.3106   -0.5159 C   0  0  0  0  0  0  0  0  0  0  0  0
   -1.1287    1.4781    0.3385 C   0  0  0  0  0  0  0  0  0  0  0  0
    0.3446    1.4956    0.7460 C   0  0  0  0  0  0  0  0  0  0  0  0
    2.1950    1.8050   -0.2648 H   0  0  0  0  0  0  0  0  0  0  0  0
    0.9172    1.3304   -1.3565 H   0  0  0  0  0  0  0  0  0  0  0  0
    2.3482   -0.4485    0.7022 H   0  0  0  0  0  0  0  0  0  0  0  0
    2.7006   -0.3717   -1.0110 H   0  0  0  0  0  0  0  0  0  0  0  0
    0.4719   -1.3313   -1.5673 H   0  0  0  0  0  0  0  0  0  0  0  0
    1.4990   -2.3550   -0.5943 H   0  0  0  0  0  0  0  0  0  0  0  0
   -0.3071   -2.7010    0.6611 H   0  0  0  0  0  0  0  0  0  0  0  0
    0.1516   -1.2343    1.4682 H   0  0  0  0  0  0  0  0  0  0  0  0
   -2.0282   -1.7748   -0.5562 H   0  0  0  0  0  0  0  0  0  0  0  0
   -2.1805   -1.0693    1.0380 H   0  0  0  0  0  0  0  0  0  0  0  0
   -2.6644    0.5063   -0.7648 H   0  0  0  0  0  0  0  0  0  0  0  0
   -1.0946    0.3004   -1.4803 H   0  0  0  0  0  0  0  0  0  0  0  0
   -1.7431    1.5449    1.2450 H   0  0  0  0  0  0  0  0  0  0  0  0
   -1.3300    2.3986   -0.2257 H   0  0  0  0  0  0  0  0  0  0  0  0
    0.5051    0.8786    1.6356 H   0  0  0  0  0  0  0  0  0  0  0  0
    0.5664    2.5202    1.0747 H   0  0  0  0  0  0  0  0  0  0  0  0
  1  2  1  0
  2  3  1  0
  3  4  1  0
  4  5  1  0
  5  6  1  0
  6  7  1  0
  7  8  1  0
  8  1  1  0
  1  9  1  0
  1 10  1  0
  2 11  1  0
  2 12  1  0
  3 13  1  0
  3 14  1  0
  4 15  1  0
  4 16  1  0
  5 17  1  0
  5 18  1  0
  6 19  1  0
  6 20  1  0
  7 21  1  0
  7 22  1  0
  8 23  1  0
  8 24  1  0
M  END
>  <Energy>  (1) 
12.139728185206355

>  <Real charge>  (1) 
0

>  <Mult>  (1) 
1

$$$$
