mol_992 280
     RDKit          3D

 34 35  0  0  0  0  0  0  0  0999 V2000
   -3.0083    2.1296    0.8515 C   0  0  0  0  0  0  0  0  0  0  0  0
   -2.8441    0.7086    0.5403 N   0  0  0  0  0  0  0  0  0  0  0  0
   -4.0899   -0.0211    0.3423 C   0  0  0  0  0  0  0  0  0  0  0  0
   -1.5886    0.1592    0.2781 C   0  0  0  0  0  0  0  0  0  0  0  0
   -1.1275   -1.1087    0.2305 C   0  0  0  0  0  0  0  0  0  0  0  0
   -1.8921   -2.3555    0.5452 C   0  0  0  0  0  0  0  0  0  0  0  0
    0.2268   -1.2213   -0.1224 N   0  0  0  0  0  0  0  0  0  0  0  0
    0.5500   -2.0565   -1.2940 C   0  0  0  0  0  0  0  0  0  0  0  0
    0.7066    0.1074   -0.2329 N   0  0  0  0  0  0  0  0  0  0  0  0
    2.0858    0.4130   -0.0863 C   0  0  0  0  0  0  0  0  0  0  0  0
    3.0073   -0.5657    0.3196 C   0  0  0  0  0  0  0  0  0  0  0  0
    4.3663   -0.2671    0.4620 C   0  0  0  0  0  0  0  0  0  0  0  0
    4.8275    1.0194    0.2021 C   0  0  0  0  0  0  0  0  0  0  0  0
    3.9295    2.0057   -0.1942 C   0  0  0  0  0  0  0  0  0  0  0  0
    2.5701    1.7045   -0.3342 C   0  0  0  0  0  0  0  0  0  0  0  0
   -0.3566    0.9999   -0.0449 C   0  0  0  0  0  0  0  0  0  0  0  0
   -0.3468    2.2233   -0.0790 O   0  0  0  0  0  0  0  0  0  0  0  0
   -2.9464    2.7319   -0.0605 H   0  0  0  0  0  0  0  0  0  0  0  0
   -2.2526    2.4671    1.5687 H   0  0  0  0  0  0  0  0  0  0  0  0
   -3.9818    2.3218    1.3172 H   0  0  0  0  0  0  0  0  0  0  0  0
   -4.9000    0.6491    0.0324 H   0  0  0  0  0  0  0  0  0  0  0  0
   -4.3937   -0.5088    1.2737 H   0  0  0  0  0  0  0  0  0  0  0  0
   -3.9955   -0.7764   -0.4450 H   0  0  0  0  0  0  0  0  0  0  0  0
   -1.2435   -3.0875    1.0393 H   0  0  0  0  0  0  0  0  0  0  0  0
   -2.2831   -2.8083   -0.3710 H   0  0  0  0  0  0  0  0  0  0  0  0
   -2.7228   -2.1703    1.2305 H   0  0  0  0  0  0  0  0  0  0  0  0
    0.0130   -1.7058   -2.1831 H   0  0  0  0  0  0  0  0  0  0  0  0
    0.2689   -3.0982   -1.1059 H   0  0  0  0  0  0  0  0  0  0  0  0
    1.6199   -2.0500   -1.5206 H   0  0  0  0  0  0  0  0  0  0  0  0
    2.6744   -1.5703    0.5656 H   0  0  0  0  0  0  0  0  0  0  0  0
    5.0595   -1.0389    0.7861 H   0  0  0  0  0  0  0  0  0  0  0  0
    5.8822    1.2555    0.3147 H   0  0  0  0  0  0  0  0  0  0  0  0
    4.2808    3.0145   -0.3959 H   0  0  0  0  0  0  0  0  0  0  0  0
    1.9045    2.4999   -0.6594 H   0  0  0  0  0  0  0  0  0  0  0  0
  1  2  1  0
  2  3  1  0
  2  4  1  0
  4  5  2  0
  5  6  1  0
  5  7  1  0
  7  8  1  0
  7  9  1  0
  9 10  1  0
 10 11  2  0
 11 12  1  0
 12 13  2  0
 13 14  1  0
 14 15  2  0
  9 16  1  0
 16 17  2  0
 15 10  1  0
 16  4  1  0
  1 18  1  0
  1 19  1  0
  1 20  1  0
  3 21  1  0
  3 22  1  0
  3 23  1  0
  6 24  1  0
  6 25  1  0
  6 26  1  0
  8 27  1  0
  8 28  1  0
  8 29  1  0
 11 30  1  0
 12 31  1  0
 13 32  1  0
 14 33  1  0
 15 34  1  0
M  END
>  <Energy>  (1) 
117.4348660429067

>  <Real charge>  (1) 
0

>  <Mult>  (1) 
1

$$$$
mol_992 162
     RDKit          3D

 34 35  0  0  0  0  0  0  0  0999 V2000
   -3.1246   -1.8675   -1.1199 C   0  0  0  0  0  0  0  0  0  0  0  0
   -2.8957   -0.7028   -0.2544 N   0  0  0  0  0  0  0  0  0  0  0  0
   -3.8469    0.3817   -0.5227 C   0  0  0  0  0  0  0  0  0  0  0  0
   -1.5930   -0.3750    0.1315 C   0  0  0  0  0  0  0  0  0  0  0  0
   -1.1191    0.3295    1.1792 C   0  0  0  0  0  0  0  0  0  0  0  0
   -1.9417    0.9004    2.2923 C   0  0  0  0  0  0  0  0  0  0  0  0
    0.2811    0.4363    1.2121 N   0  0  0  0  0  0  0  0  0  0  0  0
    0.9788    0.0189    2.4412 C   0  0  0  0  0  0  0  0  0  0  0  0
    0.7456   -0.2293    0.0459 N   0  0  0  0  0  0  0  0  0  0  0  0
    2.0036    0.0851   -0.5352 C   0  0  0  0  0  0  0  0  0  0  0  0
    2.5119   -0.6657   -1.6040 C   0  0  0  0  0  0  0  0  0  0  0  0
    3.7525   -0.3613   -2.1750 C   0  0  0  0  0  0  0  0  0  0  0  0
    4.5041    0.7041   -1.6887 C   0  0  0  0  0  0  0  0  0  0  0  0
    4.0142    1.4674   -0.6337 C   0  0  0  0  0  0  0  0  0  0  0  0
    2.7744    1.1599   -0.0637 C   0  0  0  0  0  0  0  0  0  0  0  0
   -0.3462   -0.7881   -0.6336 C   0  0  0  0  0  0  0  0  0  0  0  0
   -0.3631   -1.4257   -1.6779 O   0  0  0  0  0  0  0  0  0  0  0  0
   -2.8913   -1.6360   -2.1646 H   0  0  0  0  0  0  0  0  0  0  0  0
   -4.1746   -2.1764   -1.0667 H   0  0  0  0  0  0  0  0  0  0  0  0
   -2.5253   -2.7242   -0.7928 H   0  0  0  0  0  0  0  0  0  0  0  0
   -4.8755    0.0155   -0.4364 H   0  0  0  0  0  0  0  0  0  0  0  0
   -3.7388    1.2154    0.1767 H   0  0  0  0  0  0  0  0  0  0  0  0
   -3.7013    0.7730   -1.5359 H   0  0  0  0  0  0  0  0  0  0  0  0
   -1.8762    1.9929    2.2872 H   0  0  0  0  0  0  0  0  0  0  0  0
   -2.9966    0.6217    2.2194 H   0  0  0  0  0  0  0  0  0  0  0  0
   -1.5952    0.5381    3.2651 H   0  0  0  0  0  0  0  0  0  0  0  0
    2.0660    0.0177    2.3203 H   0  0  0  0  0  0  0  0  0  0  0  0
    0.6736   -0.9908    2.7395 H   0  0  0  0  0  0  0  0  0  0  0  0
    0.7501    0.7117    3.2577 H   0  0  0  0  0  0  0  0  0  0  0  0
    1.9628   -1.5145   -2.0032 H   0  0  0  0  0  0  0  0  0  0  0  0
    4.1266   -0.9608   -3.0010 H   0  0  0  0  0  0  0  0  0  0  0  0
    5.4656    0.9421   -2.1355 H   0  0  0  0  0  0  0  0  0  0  0  0
    4.5893    2.3094   -0.2579 H   0  0  0  0  0  0  0  0  0  0  0  0
    2.4049    1.7973    0.7349 H   0  0  0  0  0  0  0  0  0  0  0  0
  1  2  1  0
  2  3  1  0
  2  4  1  0
  4  5  2  0
  5  6  1  0
  5  7  1  0
  7  8  1  0
  7  9  1  0
  9 10  1  0
 10 11  2  0
 11 12  1  0
 12 13  2  0
 13 14  1  0
 14 15  2  0
  9 16  1  0
 16 17  2  0
 15 10  1  0
 16  4  1  0
  1 18  1  0
  1 19  1  0
  1 20  1  0
  3 21  1  0
  3 22  1  0
  3 23  1  0
  6 24  1  0
  6 25  1  0
  6 26  1  0
  8 27  1  0
  8 28  1  0
  8 29  1  0
 11 30  1  0
 12 31  1  0
 13 32  1  0
 14 33  1  0
 15 34  1  0
M  END
>  <Energy>  (2) 
117.92715987211805

>  <Real charge>  (2) 
0

>  <Mult>  (2) 
1

$$$$
mol_992 36
     RDKit          3D

 34 35  0  0  0  0  0  0  0  0999 V2000
    3.8999   -0.6966   -0.5682 C   0  0  0  0  0  0  0  0  0  0  0  0
    2.9123   -0.3690    0.4565 N   0  0  0  0  0  0  0  0  0  0  0  0
    3.2352   -0.8917    1.7859 C   0  0  0  0  0  0  0  0  0  0  0  0
    1.6167    0.0367    0.1323 C   0  0  0  0  0  0  0  0  0  0  0  0
    1.1134    0.7963   -0.8644 C   0  0  0  0  0  0  0  0  0  0  0  0
    1.8952    1.5119   -1.9230 C   0  0  0  0  0  0  0  0  0  0  0  0
   -0.2833    0.9519   -0.8193 N   0  0  0  0  0  0  0  0  0  0  0  0
   -0.8300    2.3207   -0.8261 C   0  0  0  0  0  0  0  0  0  0  0  0
   -0.7244    0.1767    0.2829 N   0  0  0  0  0  0  0  0  0  0  0  0
   -2.0511   -0.3284    0.3498 C   0  0  0  0  0  0  0  0  0  0  0  0
   -2.9339   -0.1992   -0.7346 C   0  0  0  0  0  0  0  0  0  0  0  0
   -4.2409   -0.6931   -0.6679 C   0  0  0  0  0  0  0  0  0  0  0  0
   -4.6874   -1.3277    0.4869 C   0  0  0  0  0  0  0  0  0  0  0  0
   -3.8261   -1.4718    1.5703 C   0  0  0  0  0  0  0  0  0  0  0  0
   -2.5187   -0.9781    1.5003 C   0  0  0  0  0  0  0  0  0  0  0  0
    0.3873   -0.3698    0.9371 C   0  0  0  0  0  0  0  0  0  0  0  0
    0.4193   -1.0986    1.9199 O   0  0  0  0  0  0  0  0  0  0  0  0
    4.4690   -1.5941   -0.2995 H   0  0  0  0  0  0  0  0  0  0  0  0
    4.6079    0.1302   -0.6819 H   0  0  0  0  0  0  0  0  0  0  0  0
    3.4321   -0.9021   -1.5370 H   0  0  0  0  0  0  0  0  0  0  0  0
    2.7640   -0.2924    2.5722 H   0  0  0  0  0  0  0  0  0  0  0  0
    4.3155   -0.8463    1.9659 H   0  0  0  0  0  0  0  0  0  0  0  0
    2.9188   -1.9356    1.8793 H   0  0  0  0  0  0  0  0  0  0  0  0
    1.6575    2.5802   -1.9345 H   0  0  0  0  0  0  0  0  0  0  0  0
    1.6607    1.0966   -2.9083 H   0  0  0  0  0  0  0  0  0  0  0  0
    2.9745    1.4450   -1.7750 H   0  0  0  0  0  0  0  0  0  0  0  0
   -0.3522    2.9355   -0.0545 H   0  0  0  0  0  0  0  0  0  0  0  0
   -0.6636    2.7878   -1.8023 H   0  0  0  0  0  0  0  0  0  0  0  0
   -1.9089    2.3373   -0.6459 H   0  0  0  0  0  0  0  0  0  0  0  0
   -2.6057    0.2594   -1.6632 H   0  0  0  0  0  0  0  0  0  0  0  0
   -4.9035   -0.5895   -1.5230 H   0  0  0  0  0  0  0  0  0  0  0  0
   -5.7012   -1.7151    0.5409 H   0  0  0  0  0  0  0  0  0  0  0  0
   -4.1659   -1.9692    2.4752 H   0  0  0  0  0  0  0  0  0  0  0  0
   -1.8825   -1.0981    2.3734 H   0  0  0  0  0  0  0  0  0  0  0  0
  1  2  1  0
  2  3  1  0
  2  4  1  0
  4  5  2  0
  5  6  1  0
  5  7  1  0
  7  8  1  0
  7  9  1  0
  9 10  1  0
 10 11  2  0
 11 12  1  0
 12 13  2  0
 13 14  1  0
 14 15  2  0
  9 16  1  0
 16 17  2  0
 15 10  1  0
 16  4  1  0
  1 18  1  0
  1 19  1  0
  1 20  1  0
  3 21  1  0
  3 22  1  0
  3 23  1  0
  6 24  1  0
  6 25  1  0
  6 26  1  0
  8 27  1  0
  8 28  1  0
  8 29  1  0
 11 30  1  0
 12 31  1  0
 13 32  1  0
 14 33  1  0
 15 34  1  0
M  END
>  <Energy>  (3) 
118.02098518475007

>  <Real charge>  (3) 
0

>  <Mult>  (3) 
1

$$$$
