mol_101 315
     RDKit          3D

 54 57  0  0  0  0  0  0  0  0999 V2000
    2.3500    0.6801    1.8770 C   0  0  0  0  0  0  0  0  0  0  0  0
    2.0221    0.1185    0.4826 C   0  0  0  0  0  0  0  0  0  0  0  0
    1.2867   -1.2378    0.6047 C   0  0  0  0  0  0  0  0  0  0  0  0
   -0.1538   -1.1076    1.1039 C   0  0  0  0  0  0  0  0  0  0  0  0
   -0.9994   -0.1714    0.2193 C   0  0  0  0  0  0  0  0  0  0  0  0
   -0.3088    1.2113    0.1049 C   0  0  0  0  0  0  0  0  0  0  0  0
   -1.1077    2.1390   -0.8226 C   0  0  0  0  0  0  0  0  0  0  0  0
   -2.5385    2.3128   -0.3330 C   0  0  0  0  0  0  0  0  0  0  0  0
   -3.2362    0.9834   -0.1730 C   0  0  0  0  0  0  0  0  0  0  0  0
   -4.4423    0.7935   -0.7372 C   0  0  0  0  0  0  0  0  0  0  0  0
   -5.2238   -0.4436   -0.5110 C   0  0  0  0  0  0  0  0  0  0  0  0
   -6.3043   -0.5879   -1.0773 O   0  0  0  0  0  0  0  0  0  0  0  0
   -4.6937   -1.4429    0.4822 C   0  0  0  0  0  0  0  0  0  0  0  0
   -3.1724   -1.4706    0.4477 C   0  0  0  0  0  0  0  0  0  0  0  0
   -2.5118   -0.0760    0.6679 C   0  0  0  0  0  0  0  0  0  0  0  0
   -2.6550    0.3146    2.1567 C   0  0  0  0  0  0  0  0  0  0  0  0
    1.1685    1.1191   -0.3355 C   0  0  0  0  0  0  0  0  0  0  0  0
    1.3986    0.6973   -1.7961 C   0  0  0  0  0  0  0  0  0  0  0  0
    2.7773    0.0383   -1.8345 C   0  0  0  0  0  0  0  0  0  0  0  0
    3.3031    0.0523   -0.3946 C   0  0  0  0  0  0  0  0  0  0  0  0
    4.2876   -1.0807   -0.1120 C   0  0  0  0  0  0  0  0  0  0  0  0
    4.2429   -1.7784    0.9037 O   0  0  0  0  0  0  0  0  0  0  0  0
    5.4190   -1.2848   -1.1180 C   0  0  0  0  0  0  0  0  0  0  0  0
    6.4173   -2.1591   -0.6120 O   0  0  0  0  0  0  0  0  0  0  0  0
    2.8858    1.6333    1.8047 H   0  0  0  0  0  0  0  0  0  0  0  0
    2.9824   -0.0098    2.4450 H   0  0  0  0  0  0  0  0  0  0  0  0
    1.4487    0.8630    2.4696 H   0  0  0  0  0  0  0  0  0  0  0  0
    1.8203   -1.9019    1.2941 H   0  0  0  0  0  0  0  0  0  0  0  0
    1.2693   -1.7573   -0.3612 H   0  0  0  0  0  0  0  0  0  0  0  0
   -0.1429   -0.7529    2.1398 H   0  0  0  0  0  0  0  0  0  0  0  0
   -0.5922   -2.1110    1.1230 H   0  0  0  0  0  0  0  0  0  0  0  0
   -1.0035   -0.6098   -0.7894 H   0  0  0  0  0  0  0  0  0  0  0  0
   -0.3065    1.6717    1.1019 H   0  0  0  0  0  0  0  0  0  0  0  0
   -0.6242    3.1222   -0.8720 H   0  0  0  0  0  0  0  0  0  0  0  0
   -1.1248    1.7406   -1.8446 H   0  0  0  0  0  0  0  0  0  0  0  0
   -2.5388    2.8365    0.6307 H   0  0  0  0  0  0  0  0  0  0  0  0
   -3.0753    2.9617   -1.0359 H   0  0  0  0  0  0  0  0  0  0  0  0
   -4.9369    1.5482   -1.3390 H   0  0  0  0  0  0  0  0  0  0  0  0
   -5.0731   -1.1864    1.4762 H   0  0  0  0  0  0  0  0  0  0  0  0
   -5.0769   -2.4341    0.2158 H   0  0  0  0  0  0  0  0  0  0  0  0
   -2.8227   -2.1884    1.1990 H   0  0  0  0  0  0  0  0  0  0  0  0
   -2.8648   -1.8701   -0.5290 H   0  0  0  0  0  0  0  0  0  0  0  0
   -2.3064   -0.4854    2.8184 H   0  0  0  0  0  0  0  0  0  0  0  0
   -2.0873    1.2169    2.4045 H   0  0  0  0  0  0  0  0  0  0  0  0
   -3.6998    0.5140    2.4222 H   0  0  0  0  0  0  0  0  0  0  0  0
    1.6055    2.1234   -0.2230 H   0  0  0  0  0  0  0  0  0  0  0  0
    0.6467   -0.0150   -2.1502 H   0  0  0  0  0  0  0  0  0  0  0  0
    1.3595    1.5641   -2.4650 H   0  0  0  0  0  0  0  0  0  0  0  0
    2.6923   -0.9809   -2.2294 H   0  0  0  0  0  0  0  0  0  0  0  0
    3.4536    0.5840   -2.5021 H   0  0  0  0  0  0  0  0  0  0  0  0
    3.8756    0.9809   -0.2535 H   0  0  0  0  0  0  0  0  0  0  0  0
    5.0148   -1.7205   -2.0347 H   0  0  0  0  0  0  0  0  0  0  0  0
    5.8892   -0.3225   -1.3362 H   0  0  0  0  0  0  0  0  0  0  0  0
    6.0067   -2.6339    0.1401 H   0  0  0  0  0  0  0  0  0  0  0  0
  1  2  1  0
  2  3  1  0
  3  4  1  0
  4  5  1  0
  5  6  1  0
  6  7  1  0
  7  8  1  0
  8  9  1  0
  9 10  2  0
 10 11  1  0
 11 12  2  0
 11 13  1  0
 13 14  1  0
 14 15  1  0
 15 16  1  0
  6 17  1  0
 17 18  1  0
 18 19  1  0
 19 20  1  0
 20 21  1  0
 21 22  2  0
 21 23  1  0
 23 24  1  0
 20  2  1  0
 17  2  1  0
 15  5  1  0
 15  9  1  0
  1 25  1  0
  1 26  1  0
  1 27  1  0
  3 28  1  0
  3 29  1  0
  4 30  1  0
  4 31  1  0
  5 32  1  0
  6 33  1  0
  7 34  1  0
  7 35  1  0
  8 36  1  0
  8 37  1  0
 10 38  1  0
 13 39  1  0
 13 40  1  0
 14 41  1  0
 14 42  1  0
 16 43  1  0
 16 44  1  0
 16 45  1  0
 17 46  1  0
 18 47  1  0
 18 48  1  0
 19 49  1  0
 19 50  1  0
 20 51  1  0
 23 52  1  0
 23 53  1  0
 24 54  1  0
M  END
>  <Energy>  (1) 
88.91930241813697

>  <Real charge>  (1) 
0

>  <Mult>  (1) 
1

$$$$
mol_101 447
     RDKit          3D

 54 57  0  0  0  0  0  0  0  0999 V2000
    2.5624    0.4073    1.5724 C   0  0  0  0  0  0  0  0  0  0  0  0
    2.0822    0.1299    0.1362 C   0  0  0  0  0  0  0  0  0  0  0  0
    1.3658   -1.2395    0.0698 C   0  0  0  0  0  0  0  0  0  0  0  0
   -0.0029   -1.2465    0.7505 C   0  0  0  0  0  0  0  0  0  0  0  0
   -0.9462   -0.1766    0.1661 C   0  0  0  0  0  0  0  0  0  0  0  0
   -0.2783    1.2195    0.2538 C   0  0  0  0  0  0  0  0  0  0  0  0
   -1.1825    2.2878   -0.3790 C   0  0  0  0  0  0  0  0  0  0  0  0
   -2.5475    2.3263    0.2932 C   0  0  0  0  0  0  0  0  0  0  0  0
   -3.2188    0.9743    0.2638 C   0  0  0  0  0  0  0  0  0  0  0  0
   -4.4823    0.8695   -0.1855 C   0  0  0  0  0  0  0  0  0  0  0  0
   -5.2302   -0.4068   -0.1231 C   0  0  0  0  0  0  0  0  0  0  0  0
   -6.3726   -0.4604   -0.5715 O   0  0  0  0  0  0  0  0  0  0  0  0
   -4.5829   -1.5726    0.5753 C   0  0  0  0  0  0  0  0  0  0  0  0
   -3.0757   -1.5508    0.3639 C   0  0  0  0  0  0  0  0  0  0  0  0
   -2.3992   -0.2120    0.7876 C   0  0  0  0  0  0  0  0  0  0  0  0
   -2.3744   -0.1311    2.3311 C   0  0  0  0  0  0  0  0  0  0  0  0
    1.1432    1.2611   -0.3507 C   0  0  0  0  0  0  0  0  0  0  0  0
    1.2186    1.1439   -1.8756 C   0  0  0  0  0  0  0  0  0  0  0  0
    2.6816    0.8242   -2.1632 C   0  0  0  0  0  0  0  0  0  0  0  0
    3.2686    0.2324   -0.8671 C   0  0  0  0  0  0  0  0  0  0  0  0
    4.0256   -1.0718   -1.1124 C   0  0  0  0  0  0  0  0  0  0  0  0
    3.7576   -1.8376   -2.0420 O   0  0  0  0  0  0  0  0  0  0  0  0
    5.1288   -1.4329   -0.1236 C   0  0  0  0  0  0  0  0  0  0  0  0
    5.9412   -2.4884   -0.6165 O   0  0  0  0  0  0  0  0  0  0  0  0
    3.1094    1.3552    1.6312 H   0  0  0  0  0  0  0  0  0  0  0  0
    3.2305   -0.3815    1.9300 H   0  0  0  0  0  0  0  0  0  0  0  0
    1.7301    0.4742    2.2794 H   0  0  0  0  0  0  0  0  0  0  0  0
    1.2248   -1.5484   -0.9736 H   0  0  0  0  0  0  0  0  0  0  0  0
    1.9895   -2.0140    0.5336 H   0  0  0  0  0  0  0  0  0  0  0  0
    0.1293   -1.0990    1.8273 H   0  0  0  0  0  0  0  0  0  0  0  0
   -0.4342   -2.2449    0.6227 H   0  0  0  0  0  0  0  0  0  0  0  0
   -1.0611   -0.4056   -0.9037 H   0  0  0  0  0  0  0  0  0  0  0  0
   -0.1687    1.4746    1.3162 H   0  0  0  0  0  0  0  0  0  0  0  0
   -0.7117    3.2743   -0.2908 H   0  0  0  0  0  0  0  0  0  0  0  0
   -1.3172    2.0920   -1.4501 H   0  0  0  0  0  0  0  0  0  0  0  0
   -2.4380    2.6500    1.3354 H   0  0  0  0  0  0  0  0  0  0  0  0
   -3.1633    3.0870   -0.2023 H   0  0  0  0  0  0  0  0  0  0  0  0
   -5.0452    1.7159   -0.5640 H   0  0  0  0  0  0  0  0  0  0  0  0
   -4.8443   -1.5356    1.6374 H   0  0  0  0  0  0  0  0  0  0  0  0
   -4.9906   -2.4988    0.1554 H   0  0  0  0  0  0  0  0  0  0  0  0
   -2.6386   -2.3958    0.9087 H   0  0  0  0  0  0  0  0  0  0  0  0
   -2.8822   -1.7360   -0.7020 H   0  0  0  0  0  0  0  0  0  0  0  0
   -3.3831   -0.0162    2.7450 H   0  0  0  0  0  0  0  0  0  0  0  0
   -1.9504   -1.0380    2.7753 H   0  0  0  0  0  0  0  0  0  0  0  0
   -1.7854    0.7180    2.6916 H   0  0  0  0  0  0  0  0  0  0  0  0
    1.5878    2.2309   -0.0793 H   0  0  0  0  0  0  0  0  0  0  0  0
    0.9135    2.0679   -2.3773 H   0  0  0  0  0  0  0  0  0  0  0  0
    0.5835    0.3381   -2.2574 H   0  0  0  0  0  0  0  0  0  0  0  0
    3.2161    1.7508   -2.4078 H   0  0  0  0  0  0  0  0  0  0  0  0
    2.7703    0.1733   -3.0383 H   0  0  0  0  0  0  0  0  0  0  0  0
    4.0088    0.9584   -0.5031 H   0  0  0  0  0  0  0  0  0  0  0  0
    5.7686   -0.5642    0.0496 H   0  0  0  0  0  0  0  0  0  0  0  0
    4.6778   -1.7591    0.8155 H   0  0  0  0  0  0  0  0  0  0  0  0
    5.3914   -2.9732   -1.2661 H   0  0  0  0  0  0  0  0  0  0  0  0
  1  2  1  0
  2  3  1  0
  3  4  1  0
  4  5  1  0
  5  6  1  0
  6  7  1  0
  7  8  1  0
  8  9  1  0
  9 10  2  0
 10 11  1  0
 11 12  2  0
 11 13  1  0
 13 14  1  0
 14 15  1  0
 15 16  1  0
  6 17  1  0
 17 18  1  0
 18 19  1  0
 19 20  1  0
 20 21  1  0
 21 22  2  0
 21 23  1  0
 23 24  1  0
 20  2  1  0
 17  2  1  0
 15  5  1  0
 15  9  1  0
  1 25  1  0
  1 26  1  0
  1 27  1  0
  3 28  1  0
  3 29  1  0
  4 30  1  0
  4 31  1  0
  5 32  1  0
  6 33  1  0
  7 34  1  0
  7 35  1  0
  8 36  1  0
  8 37  1  0
 10 38  1  0
 13 39  1  0
 13 40  1  0
 14 41  1  0
 14 42  1  0
 16 43  1  0
 16 44  1  0
 16 45  1  0
 17 46  1  0
 18 47  1  0
 18 48  1  0
 19 49  1  0
 19 50  1  0
 20 51  1  0
 23 52  1  0
 23 53  1  0
 24 54  1  0
M  END
>  <Energy>  (2) 
88.98082129469842

>  <Real charge>  (2) 
0

>  <Mult>  (2) 
1

$$$$
mol_101 436
     RDKit          3D

 54 57  0  0  0  0  0  0  0  0999 V2000
   -2.3474    0.0500    1.6992 C   0  0  0  0  0  0  0  0  0  0  0  0
   -1.9496   -0.4769    0.3092 C   0  0  0  0  0  0  0  0  0  0  0  0
   -1.0200   -1.7063    0.4736 C   0  0  0  0  0  0  0  0  0  0  0  0
    0.3822   -1.3503    0.9686 C   0  0  0  0  0  0  0  0  0  0  0  0
    1.0767   -0.3173    0.0579 C   0  0  0  0  0  0  0  0  0  0  0  0
    0.1819    0.9397   -0.1025 C   0  0  0  0  0  0  0  0  0  0  0  0
    0.8353    1.9489   -1.0585 C   0  0  0  0  0  0  0  0  0  0  0  0
    2.2192    2.3559   -0.5730 C   0  0  0  0  0  0  0  0  0  0  0  0
    3.1121    1.1554   -0.3681 C   0  0  0  0  0  0  0  0  0  0  0  0
    4.3368    1.1356   -0.9240 C   0  0  0  0  0  0  0  0  0  0  0  0
    5.2979    0.0418   -0.6556 C   0  0  0  0  0  0  0  0  0  0  0  0
    6.3919    0.0466   -1.2145 O   0  0  0  0  0  0  0  0  0  0  0  0
    4.9211   -0.9942    0.3693 C   0  0  0  0  0  0  0  0  0  0  0  0
    3.4226   -1.2575    0.3329 C   0  0  0  0  0  0  0  0  0  0  0  0
    2.5535    0.0249    0.5056 C   0  0  0  0  0  0  0  0  0  0  0  0
    2.6245    0.4809    1.9810 C   0  0  0  0  0  0  0  0  0  0  0  0
   -1.2631    0.6123   -0.5422 C   0  0  0  0  0  0  0  0  0  0  0  0
   -1.4188    0.1120   -1.9872 C   0  0  0  0  0  0  0  0  0  0  0  0
   -2.6785   -0.7573   -2.0137 C   0  0  0  0  0  0  0  0  0  0  0  0
   -3.1723   -0.8656   -0.5635 C   0  0  0  0  0  0  0  0  0  0  0  0
   -4.3993    0.0255   -0.3679 C   0  0  0  0  0  0  0  0  0  0  0  0
   -4.4563    1.1872   -0.7790 O   0  0  0  0  0  0  0  0  0  0  0  0
   -5.5846   -0.5913    0.3671 C   0  0  0  0  0  0  0  0  0  0  0  0
   -6.5824    0.3749    0.6587 O   0  0  0  0  0  0  0  0  0  0  0  0
   -2.9642    0.9525    1.6337 H   0  0  0  0  0  0  0  0  0  0  0  0
   -2.9143   -0.7051    2.2546 H   0  0  0  0  0  0  0  0  0  0  0  0
   -1.4755    0.3166    2.3039 H   0  0  0  0  0  0  0  0  0  0  0  0
   -0.9151   -2.2422   -0.4784 H   0  0  0  0  0  0  0  0  0  0  0  0
   -1.4744   -2.4244    1.1683 H   0  0  0  0  0  0  0  0  0  0  0  0
    0.9670   -2.2754    1.0082 H   0  0  0  0  0  0  0  0  0  0  0  0
    0.3195   -0.9790    1.9963 H   0  0  0  0  0  0  0  0  0  0  0  0
    1.1553   -0.7792   -0.9372 H   0  0  0  0  0  0  0  0  0  0  0  0
    0.1030    1.4251    0.8794 H   0  0  0  0  0  0  0  0  0  0  0  0
    0.9197    1.5253   -2.0670 H   0  0  0  0  0  0  0  0  0  0  0  0
    0.2072    2.8442   -1.1407 H   0  0  0  0  0  0  0  0  0  0  0  0
    2.6546    3.0566   -1.2960 H   0  0  0  0  0  0  0  0  0  0  0  0
    2.1330    2.9043    0.3730 H   0  0  0  0  0  0  0  0  0  0  0  0
    4.7128    1.9378   -1.5497 H   0  0  0  0  0  0  0  0  0  0  0  0
    5.2495   -0.6501    1.3550 H   0  0  0  0  0  0  0  0  0  0  0  0
    5.4543   -1.9227    0.1369 H   0  0  0  0  0  0  0  0  0  0  0  0
    3.1825   -1.9958    1.1071 H   0  0  0  0  0  0  0  0  0  0  0  0
    3.1869   -1.7311   -0.6305 H   0  0  0  0  0  0  0  0  0  0  0  0
    3.6241    0.8486    2.2413 H   0  0  0  0  0  0  0  0  0  0  0  0
    1.9222    1.2917    2.1982 H   0  0  0  0  0  0  0  0  0  0  0  0
    2.4001   -0.3417    2.6684 H   0  0  0  0  0  0  0  0  0  0  0  0
   -1.8429    1.5432   -0.4611 H   0  0  0  0  0  0  0  0  0  0  0  0
   -1.5099    0.9522   -2.6844 H   0  0  0  0  0  0  0  0  0  0  0  0
   -0.5618   -0.4842   -2.3165 H   0  0  0  0  0  0  0  0  0  0  0  0
   -2.4238   -1.7513   -2.4006 H   0  0  0  0  0  0  0  0  0  0  0  0
   -3.4308   -0.3391   -2.6915 H   0  0  0  0  0  0  0  0  0  0  0  0
   -3.4912   -1.8964   -0.3645 H   0  0  0  0  0  0  0  0  0  0  0  0
   -5.2456   -1.0272    1.3098 H   0  0  0  0  0  0  0  0  0  0  0  0
   -6.0250   -1.3679   -0.2638 H   0  0  0  0  0  0  0  0  0  0  0  0
   -6.4009    1.1396    0.0741 H   0  0  0  0  0  0  0  0  0  0  0  0
  1  2  1  0
  2  3  1  0
  3  4  1  0
  4  5  1  0
  5  6  1  0
  6  7  1  0
  7  8  1  0
  8  9  1  0
  9 10  2  0
 10 11  1  0
 11 12  2  0
 11 13  1  0
 13 14  1  0
 14 15  1  0
 15 16  1  0
  6 17  1  0
 17 18  1  0
 18 19  1  0
 19 20  1  0
 20 21  1  0
 21 22  2  0
 21 23  1  0
 23 24  1  0
 20  2  1  0
 17  2  1  0
 15  5  1  0
 15  9  1  0
  1 25  1  0
  1 26  1  0
  1 27  1  0
  3 28  1  0
  3 29  1  0
  4 30  1  0
  4 31  1  0
  5 32  1  0
  6 33  1  0
  7 34  1  0
  7 35  1  0
  8 36  1  0
  8 37  1  0
 10 38  1  0
 13 39  1  0
 13 40  1  0
 14 41  1  0
 14 42  1  0
 16 43  1  0
 16 44  1  0
 16 45  1  0
 17 46  1  0
 18 47  1  0
 18 48  1  0
 19 49  1  0
 19 50  1  0
 20 51  1  0
 23 52  1  0
 23 53  1  0
 24 54  1  0
M  END
>  <Energy>  (3) 
89.22563157122694

>  <Real charge>  (3) 
0

>  <Mult>  (3) 
1

$$$$
