mol_707 4
     RDKit          3D

  9  9  0  0  0  0  0  0  0  0999 V2000
    0.6678    0.7627   -0.0939 C   0  0  0  0  0  0  0  0  0  0  0  0
   -0.7389    0.7152    0.0604 C   0  0  0  0  0  0  0  0  0  0  0  0
   -1.0560   -0.6063    0.2733 C   0  0  0  0  0  0  0  0  0  0  0  0
    0.0660   -1.3715    0.2593 O   0  0  0  0  0  0  0  0  0  0  0  0
    1.1108   -0.5330    0.0356 C   0  0  0  0  0  0  0  0  0  0  0  0
    1.2837    1.6318   -0.2767 H   0  0  0  0  0  0  0  0  0  0  0  0
   -1.4364    1.5398    0.0217 H   0  0  0  0  0  0  0  0  0  0  0  0
   -1.9818   -1.1380    0.4428 H   0  0  0  0  0  0  0  0  0  0  0  0
    2.0848   -1.0006   -0.0033 H   0  0  0  0  0  0  0  0  0  0  0  0
  1  2  1  0
  2  3  2  0
  3  4  1  0
  4  5  1  0
  5  1  2  0
  1  6  1  0
  2  7  1  0
  3  8  1  0
  5  9  1  0
M  END
>  <Energy>  (1) 
1.5577219855636195

>  <Real charge>  (1) 
0

>  <Mult>  (1) 
1

$$$$
