mol_602 11
     RDKit          3D

 12 12  0  0  0  0  0  0  0  0999 V2000
    2.3126   -1.9963   -0.0342 Cl  0  0  0  0  0  0  0  0  0  0  0  0
    1.0104   -0.8608   -0.0147 C   0  0  0  0  0  0  0  0  0  0  0  0
   -0.2940   -1.3659   -0.0262 C   0  0  0  0  0  0  0  0  0  0  0  0
   -1.3850   -0.4948   -0.0115 C   0  0  0  0  0  0  0  0  0  0  0  0
   -1.1761    0.8831    0.0149 C   0  0  0  0  0  0  0  0  0  0  0  0
    0.1241    1.3917    0.0265 C   0  0  0  0  0  0  0  0  0  0  0  0
    1.2201    0.5227    0.0117 C   0  0  0  0  0  0  0  0  0  0  0  0
    2.8004    1.2213    0.0274 Cl  0  0  0  0  0  0  0  0  0  0  0  0
   -0.4668   -2.4394   -0.0468 H   0  0  0  0  0  0  0  0  0  0  0  0
   -2.3976   -0.8920   -0.0205 H   0  0  0  0  0  0  0  0  0  0  0  0
   -2.0254    1.5625    0.0264 H   0  0  0  0  0  0  0  0  0  0  0  0
    0.2772    2.4681    0.0470 H   0  0  0  0  0  0  0  0  0  0  0  0
  1  2  1  0
  2  3  2  0
  3  4  1  0
  4  5  2  0
  5  6  1  0
  6  7  2  0
  7  8  1  0
  7  2  1  0
  3  9  1  0
  4 10  1  0
  5 11  1  0
  6 12  1  0
M  END
>  <Energy>  (1) 
24.96757928627474

>  <Real charge>  (1) 
0

>  <Mult>  (1) 
1

$$$$
