mol_698 76
     RDKit          3D

 21 21  0  0  0  0  0  0  0  0999 V2000
    3.0885   -0.6040   -0.1928 C   0  0  0  0  0  0  0  0  0  0  0  0
    2.2874    0.6885   -0.2290 C   0  0  0  0  0  0  0  0  0  0  0  0
    0.8117    0.4385   -0.0545 C   0  0  0  0  0  0  0  0  0  0  0  0
   -0.0046    0.1952   -1.1656 C   0  0  0  0  0  0  0  0  0  0  0  0
   -1.3698   -0.0526   -1.0023 C   0  0  0  0  0  0  0  0  0  0  0  0
   -1.9434   -0.0557    0.2738 C   0  0  0  0  0  0  0  0  0  0  0  0
   -3.4021   -0.3554    0.4511 C   0  0  0  0  0  0  0  0  0  0  0  0
   -1.1244    0.1663    1.3862 C   0  0  0  0  0  0  0  0  0  0  0  0
    0.2408    0.4142    1.2236 C   0  0  0  0  0  0  0  0  0  0  0  0
    4.1546   -0.3921   -0.3218 H   0  0  0  0  0  0  0  0  0  0  0  0
    2.7790   -1.2859   -0.9922 H   0  0  0  0  0  0  0  0  0  0  0  0
    2.9592   -1.1251    0.7618 H   0  0  0  0  0  0  0  0  0  0  0  0
    2.6422    1.3665    0.5568 H   0  0  0  0  0  0  0  0  0  0  0  0
    2.4639    1.2074   -1.1791 H   0  0  0  0  0  0  0  0  0  0  0  0
    0.4187    0.1936   -2.1673 H   0  0  0  0  0  0  0  0  0  0  0  0
   -1.9827   -0.2441   -1.8801 H   0  0  0  0  0  0  0  0  0  0  0  0
   -3.5514   -1.4334    0.5652 H   0  0  0  0  0  0  0  0  0  0  0  0
   -3.9801   -0.0070   -0.4114 H   0  0  0  0  0  0  0  0  0  0  0  0
   -3.8007    0.1531    1.3353 H   0  0  0  0  0  0  0  0  0  0  0  0
   -1.5442    0.1471    2.3893 H   0  0  0  0  0  0  0  0  0  0  0  0
    0.8574    0.5849    2.1030 H   0  0  0  0  0  0  0  0  0  0  0  0
  1  2  1  0
  2  3  1  0
  3  4  2  0
  4  5  1  0
  5  6  2  0
  6  7  1  0
  6  8  1  0
  8  9  2  0
  9  3  1  0
  1 10  1  0
  1 11  1  0
  1 12  1  0
  2 13  1  0
  2 14  1  0
  4 15  1  0
  5 16  1  0
  7 17  1  0
  7 18  1  0
  7 19  1  0
  8 20  1  0
  9 21  1  0
M  END
>  <Energy>  (1) 
20.23866386478489

>  <Real charge>  (1) 
0

>  <Mult>  (1) 
1

$$$$
