mol_1078 51
     RDKit          3D

 23 22  0  0  0  0  0  0  0  0999 V2000
    4.0551   -0.1318   -0.2312 C   0  0  0  0  0  0  0  0  0  0  0  0
    2.7111    0.4433   -0.6490 C   0  0  0  0  0  0  0  0  0  0  0  0
    1.5549   -0.2672    0.0540 C   0  0  0  0  0  0  0  0  0  0  0  0
    0.2071    0.3133   -0.3683 C   0  0  0  0  0  0  0  0  0  0  0  0
   -0.9525   -0.3900    0.3287 C   0  0  0  0  0  0  0  0  0  0  0  0
   -2.1730    0.2128   -0.1219 O   0  0  0  0  0  0  0  0  0  0  0  0
   -3.2961   -0.3255    0.4272 C   0  0  0  0  0  0  0  0  0  0  0  0
   -3.3230   -1.2416    1.2367 O   0  0  0  0  0  0  0  0  0  0  0  0
   -4.5107    0.3705   -0.1058 C   0  0  0  0  0  0  0  0  0  0  0  0
    4.8675    0.3908   -0.7458 H   0  0  0  0  0  0  0  0  0  0  0  0
    4.1221   -1.1951   -0.4826 H   0  0  0  0  0  0  0  0  0  0  0  0
    4.2103   -0.0229    0.8470 H   0  0  0  0  0  0  0  0  0  0  0  0
    2.6014    0.3479   -1.7356 H   0  0  0  0  0  0  0  0  0  0  0  0
    2.6891    1.5137   -0.4133 H   0  0  0  0  0  0  0  0  0  0  0  0
    1.6716   -0.1724    1.1405 H   0  0  0  0  0  0  0  0  0  0  0  0
    1.5839   -1.3380   -0.1816 H   0  0  0  0  0  0  0  0  0  0  0  0
    0.0812    0.2300   -1.4551 H   0  0  0  0  0  0  0  0  0  0  0  0
    0.1682    1.3865   -0.1433 H   0  0  0  0  0  0  0  0  0  0  0  0
   -0.8662   -0.2726    1.4153 H   0  0  0  0  0  0  0  0  0  0  0  0
   -0.9552   -1.4561    0.0728 H   0  0  0  0  0  0  0  0  0  0  0  0
   -5.4063   -0.0699    0.3419 H   0  0  0  0  0  0  0  0  0  0  0  0
   -4.5649    0.2435   -1.1899 H   0  0  0  0  0  0  0  0  0  0  0  0
   -4.4756    1.4307    0.1568 H   0  0  0  0  0  0  0  0  0  0  0  0
  1  2  1  0
  2  3  1  0
  3  4  1  0
  4  5  1  0
  5  6  1  0
  6  7  1  0
  7  8  2  0
  7  9  1  0
  1 10  1  0
  1 11  1  0
  1 12  1  0
  2 13  1  0
  2 14  1  0
  3 15  1  0
  3 16  1  0
  4 17  1  0
  4 18  1  0
  5 19  1  0
  5 20  1  0
  9 21  1  0
  9 22  1  0
  9 23  1  0
M  END
>  <Energy>  (1) 
-11.845058657447417

>  <Real charge>  (1) 
0

>  <Mult>  (1) 
1

$$$$
mol_1078 149
     RDKit          3D

 23 22  0  0  0  0  0  0  0  0999 V2000
   -3.2571   -1.1389    0.9818 C   0  0  0  0  0  0  0  0  0  0  0  0
   -2.5960    0.1017    0.4027 C   0  0  0  0  0  0  0  0  0  0  0  0
   -1.1801   -0.1967   -0.0907 C   0  0  0  0  0  0  0  0  0  0  0  0
   -0.5197    1.0561   -0.6739 C   0  0  0  0  0  0  0  0  0  0  0  0
    0.8834    0.7747   -1.2052 C   0  0  0  0  0  0  0  0  0  0  0  0
    1.7271    0.3795   -0.1161 O   0  0  0  0  0  0  0  0  0  0  0  0
    3.0050    0.0839   -0.4787 C   0  0  0  0  0  0  0  0  0  0  0  0
    3.4519    0.1361   -1.6157 O   0  0  0  0  0  0  0  0  0  0  0  0
    3.7983   -0.3196    0.7261 C   0  0  0  0  0  0  0  0  0  0  0  0
   -2.6880   -1.5256    1.8332 H   0  0  0  0  0  0  0  0  0  0  0  0
   -3.3318   -1.9309    0.2298 H   0  0  0  0  0  0  0  0  0  0  0  0
   -4.2682   -0.9029    1.3281 H   0  0  0  0  0  0  0  0  0  0  0  0
   -2.5658    0.8843    1.1698 H   0  0  0  0  0  0  0  0  0  0  0  0
   -3.2066    0.4814   -0.4247 H   0  0  0  0  0  0  0  0  0  0  0  0
   -0.5789   -0.5836    0.7408 H   0  0  0  0  0  0  0  0  0  0  0  0
   -1.2160   -0.9817   -0.8559 H   0  0  0  0  0  0  0  0  0  0  0  0
   -1.1370    1.4539   -1.4876 H   0  0  0  0  0  0  0  0  0  0  0  0
   -0.4632    1.8236    0.1077 H   0  0  0  0  0  0  0  0  0  0  0  0
    0.8497   -0.0214   -1.9583 H   0  0  0  0  0  0  0  0  0  0  0  0
    1.2865    1.6870   -1.6600 H   0  0  0  0  0  0  0  0  0  0  0  0
    4.8218   -0.5582    0.4229 H   0  0  0  0  0  0  0  0  0  0  0  0
    3.3542   -1.2081    1.1818 H   0  0  0  0  0  0  0  0  0  0  0  0
    3.8305    0.5055    1.4421 H   0  0  0  0  0  0  0  0  0  0  0  0
  1  2  1  0
  2  3  1  0
  3  4  1  0
  4  5  1  0
  5  6  1  0
  6  7  1  0
  7  8  2  0
  7  9  1  0
  1 10  1  0
  1 11  1  0
  1 12  1  0
  2 13  1  0
  2 14  1  0
  3 15  1  0
  3 16  1  0
  4 17  1  0
  4 18  1  0
  5 19  1  0
  5 20  1  0
  9 21  1  0
  9 22  1  0
  9 23  1  0
M  END
>  <Energy>  (2) 
-11.607154297092972

>  <Real charge>  (2) 
0

>  <Mult>  (2) 
1

$$$$
mol_1078 210
     RDKit          3D

 23 22  0  0  0  0  0  0  0  0999 V2000
    3.9230   -0.1030    0.1969 C   0  0  0  0  0  0  0  0  0  0  0  0
    2.5338    0.1492    0.7608 C   0  0  0  0  0  0  0  0  0  0  0  0
    1.4635    0.0615   -0.3268 C   0  0  0  0  0  0  0  0  0  0  0  0
    0.0697    0.3153    0.2436 C   0  0  0  0  0  0  0  0  0  0  0  0
   -1.0030    0.2315   -0.8381 C   0  0  0  0  0  0  0  0  0  0  0  0
   -2.2918    0.5258   -0.2763 O   0  0  0  0  0  0  0  0  0  0  0  0
   -2.9562   -0.5318    0.2648 C   0  0  0  0  0  0  0  0  0  0  0  0
   -2.5476   -1.6830    0.3146 O   0  0  0  0  0  0  0  0  0  0  0  0
   -4.2787   -0.0803    0.8047 C   0  0  0  0  0  0  0  0  0  0  0  0
    3.9901   -1.1002   -0.2497 H   0  0  0  0  0  0  0  0  0  0  0  0
    4.1747    0.6354   -0.5712 H   0  0  0  0  0  0  0  0  0  0  0  0
    4.6726   -0.0355    0.9915 H   0  0  0  0  0  0  0  0  0  0  0  0
    2.5099    1.1406    1.2279 H   0  0  0  0  0  0  0  0  0  0  0  0
    2.3264   -0.5854    1.5476 H   0  0  0  0  0  0  0  0  0  0  0  0
    1.6780    0.7952   -1.1134 H   0  0  0  0  0  0  0  0  0  0  0  0
    1.4941   -0.9307   -0.7933 H   0  0  0  0  0  0  0  0  0  0  0  0
   -0.1483   -0.4082    1.0384 H   0  0  0  0  0  0  0  0  0  0  0  0
    0.0274    1.3036    0.7184 H   0  0  0  0  0  0  0  0  0  0  0  0
   -0.8161    0.9849   -1.6111 H   0  0  0  0  0  0  0  0  0  0  0  0
   -1.0038   -0.7449   -1.3373 H   0  0  0  0  0  0  0  0  0  0  0  0
   -4.1236    0.6588    1.5947 H   0  0  0  0  0  0  0  0  0  0  0  0
   -4.8850    0.3392   -0.0020 H   0  0  0  0  0  0  0  0  0  0  0  0
   -4.8090   -0.9379    1.2286 H   0  0  0  0  0  0  0  0  0  0  0  0
  1  2  1  0
  2  3  1  0
  3  4  1  0
  4  5  1  0
  5  6  1  0
  6  7  1  0
  7  8  2  0
  7  9  1  0
  1 10  1  0
  1 11  1  0
  1 12  1  0
  2 13  1  0
  2 14  1  0
  3 15  1  0
  3 16  1  0
  4 17  1  0
  4 18  1  0
  5 19  1  0
  5 20  1  0
  9 21  1  0
  9 22  1  0
  9 23  1  0
M  END
>  <Energy>  (3) 
-11.46715464870174

>  <Real charge>  (3) 
0

>  <Mult>  (3) 
1

$$$$
mol_1078 179
     RDKit          3D

 23 22  0  0  0  0  0  0  0  0999 V2000
   -2.9223    1.8283   -0.3400 C   0  0  0  0  0  0  0  0  0  0  0  0
   -2.1922    0.5961   -0.8503 C   0  0  0  0  0  0  0  0  0  0  0  0
   -1.1585    0.0989    0.1604 C   0  0  0  0  0  0  0  0  0  0  0  0
   -0.4267   -1.1420   -0.3588 C   0  0  0  0  0  0  0  0  0  0  0  0
    0.5827   -1.6832    0.6521 C   0  0  0  0  0  0  0  0  0  0  0  0
    1.5797   -0.7001    0.9691 O   0  0  0  0  0  0  0  0  0  0  0  0
    2.6396   -0.6362    0.1178 C   0  0  0  0  0  0  0  0  0  0  0  0
    2.8041   -1.3337   -0.8727 O   0  0  0  0  0  0  0  0  0  0  0  0
    3.5907    0.4300    0.5683 C   0  0  0  0  0  0  0  0  0  0  0  0
   -3.4529    1.6117    0.5927 H   0  0  0  0  0  0  0  0  0  0  0  0
   -3.6565    2.1665   -1.0779 H   0  0  0  0  0  0  0  0  0  0  0  0
   -2.2231    2.6500   -0.1551 H   0  0  0  0  0  0  0  0  0  0  0  0
   -2.9227   -0.1950   -1.0560 H   0  0  0  0  0  0  0  0  0  0  0  0
   -1.6992    0.8375   -1.7991 H   0  0  0  0  0  0  0  0  0  0  0  0
   -0.4374    0.8990    0.3660 H   0  0  0  0  0  0  0  0  0  0  0  0
   -1.6566   -0.1390    1.1081 H   0  0  0  0  0  0  0  0  0  0  0  0
    0.0876   -0.8840   -1.2919 H   0  0  0  0  0  0  0  0  0  0  0  0
   -1.1530   -1.9295   -0.5914 H   0  0  0  0  0  0  0  0  0  0  0  0
    0.0753   -1.9380    1.5890 H   0  0  0  0  0  0  0  0  0  0  0  0
    1.0482   -2.6058    0.2854 H   0  0  0  0  0  0  0  0  0  0  0  0
    4.4425    0.4688   -0.1167 H   0  0  0  0  0  0  0  0  0  0  0  0
    3.0900    1.4014    0.5574 H   0  0  0  0  0  0  0  0  0  0  0  0
    3.9604    0.1981    1.5702 H   0  0  0  0  0  0  0  0  0  0  0  0
  1  2  1  0
  2  3  1  0
  3  4  1  0
  4  5  1  0
  5  6  1  0
  6  7  1  0
  7  8  2  0
  7  9  1  0
  1 10  1  0
  1 11  1  0
  1 12  1  0
  2 13  1  0
  2 14  1  0
  3 15  1  0
  3 16  1  0
  4 17  1  0
  4 18  1  0
  5 19  1  0
  5 20  1  0
  9 21  1  0
  9 22  1  0
  9 23  1  0
M  END
>  <Energy>  (4) 
-11.29338560891057

>  <Real charge>  (4) 
0

>  <Mult>  (4) 
1

$$$$
mol_1078 230
     RDKit          3D

 23 22  0  0  0  0  0  0  0  0999 V2000
   -3.7655    0.5193   -0.3229 C   0  0  0  0  0  0  0  0  0  0  0  0
   -2.3049    0.5563    0.1004 C   0  0  0  0  0  0  0  0  0  0  0  0
   -1.6704   -0.8334    0.0348 C   0  0  0  0  0  0  0  0  0  0  0  0
   -0.2330   -0.8683    0.5545 C   0  0  0  0  0  0  0  0  0  0  0  0
    0.7464   -0.0640   -0.2945 C   0  0  0  0  0  0  0  0  0  0  0  0
    2.0628   -0.2654    0.2407 O   0  0  0  0  0  0  0  0  0  0  0  0
    3.0456    0.3914   -0.4340 C   0  0  0  0  0  0  0  0  0  0  0  0
    2.8815    1.1034   -1.4144 O   0  0  0  0  0  0  0  0  0  0  0  0
    4.3741    0.1165    0.2010 C   0  0  0  0  0  0  0  0  0  0  0  0
   -4.3479   -0.1360    0.3327 H   0  0  0  0  0  0  0  0  0  0  0  0
   -4.2000    1.5226   -0.2725 H   0  0  0  0  0  0  0  0  0  0  0  0
   -3.8668    0.1562   -1.3506 H   0  0  0  0  0  0  0  0  0  0  0  0
   -2.2366    0.9496    1.1212 H   0  0  0  0  0  0  0  0  0  0  0  0
   -1.7684    1.2513   -0.5543 H   0  0  0  0  0  0  0  0  0  0  0  0
   -2.2687   -1.5294    0.6359 H   0  0  0  0  0  0  0  0  0  0  0  0
   -1.6972   -1.2047   -0.9969 H   0  0  0  0  0  0  0  0  0  0  0  0
   -0.1966   -0.5119    1.5916 H   0  0  0  0  0  0  0  0  0  0  0  0
    0.1058   -1.9116    0.5918 H   0  0  0  0  0  0  0  0  0  0  0  0
    0.7182   -0.4117   -1.3337 H   0  0  0  0  0  0  0  0  0  0  0  0
    0.5051    1.0035   -0.2547 H   0  0  0  0  0  0  0  0  0  0  0  0
    4.5889   -0.9544    0.1627 H   0  0  0  0  0  0  0  0  0  0  0  0
    5.1557    0.6484   -0.3490 H   0  0  0  0  0  0  0  0  0  0  0  0
    4.3719    0.4724    1.2343 H   0  0  0  0  0  0  0  0  0  0  0  0
  1  2  1  0
  2  3  1  0
  3  4  1  0
  4  5  1  0
  5  6  1  0
  6  7  1  0
  7  8  2  0
  7  9  1  0
  1 10  1  0
  1 11  1  0
  1 12  1  0
  2 13  1  0
  2 14  1  0
  3 15  1  0
  3 16  1  0
  4 17  1  0
  4 18  1  0
  5 19  1  0
  5 20  1  0
  9 21  1  0
  9 22  1  0
  9 23  1  0
M  END
>  <Energy>  (5) 
-11.046127063418506

>  <Real charge>  (5) 
0

>  <Mult>  (5) 
1

$$$$
mol_1078 97
     RDKit          3D

 23 22  0  0  0  0  0  0  0  0999 V2000
    3.3279    0.5878   -0.8753 C   0  0  0  0  0  0  0  0  0  0  0  0
    2.7808    0.9644    0.4929 C   0  0  0  0  0  0  0  0  0  0  0  0
    1.5903    0.1091    0.9313 C   0  0  0  0  0  0  0  0  0  0  0  0
    0.3500    0.3067    0.0612 C   0  0  0  0  0  0  0  0  0  0  0  0
   -0.8408   -0.4835    0.5953 C   0  0  0  0  0  0  0  0  0  0  0  0
   -1.9565   -0.2475   -0.2742 O   0  0  0  0  0  0  0  0  0  0  0  0
   -3.0941   -0.9001    0.0897 C   0  0  0  0  0  0  0  0  0  0  0  0
   -3.2133   -1.6344    1.0602 O   0  0  0  0  0  0  0  0  0  0  0  0
   -4.1945   -0.5890   -0.8778 C   0  0  0  0  0  0  0  0  0  0  0  0
    2.6053    0.7990   -1.6687 H   0  0  0  0  0  0  0  0  0  0  0  0
    3.5875   -0.4747   -0.9161 H   0  0  0  0  0  0  0  0  0  0  0  0
    4.2326    1.1659   -1.0896 H   0  0  0  0  0  0  0  0  0  0  0  0
    2.5001    2.0241    0.4946 H   0  0  0  0  0  0  0  0  0  0  0  0
    3.5824    0.8480    1.2321 H   0  0  0  0  0  0  0  0  0  0  0  0
    1.3454    0.3694    1.9685 H   0  0  0  0  0  0  0  0  0  0  0  0
    1.8780   -0.9493    0.9310 H   0  0  0  0  0  0  0  0  0  0  0  0
    0.0859    1.3703    0.0115 H   0  0  0  0  0  0  0  0  0  0  0  0
    0.5463   -0.0045   -0.9714 H   0  0  0  0  0  0  0  0  0  0  0  0
   -1.0911   -0.1495    1.6091 H   0  0  0  0  0  0  0  0  0  0  0  0
   -0.6070   -1.5545    0.6076 H   0  0  0  0  0  0  0  0  0  0  0  0
   -3.9131   -0.9237   -1.8794 H   0  0  0  0  0  0  0  0  0  0  0  0
   -5.1029   -1.1183   -0.5759 H   0  0  0  0  0  0  0  0  0  0  0  0
   -4.3994    0.4845   -0.8736 H   0  0  0  0  0  0  0  0  0  0  0  0
  1  2  1  0
  2  3  1  0
  3  4  1  0
  4  5  1  0
  5  6  1  0
  6  7  1  0
  7  8  2  0
  7  9  1  0
  1 10  1  0
  1 11  1  0
  1 12  1  0
  2 13  1  0
  2 14  1  0
  3 15  1  0
  3 16  1  0
  4 17  1  0
  4 18  1  0
  5 19  1  0
  5 20  1  0
  9 21  1  0
  9 22  1  0
  9 23  1  0
M  END
>  <Energy>  (6) 
-11.025062140504646

>  <Real charge>  (6) 
0

>  <Mult>  (6) 
1

$$$$
mol_1078 318
     RDKit          3D

 23 22  0  0  0  0  0  0  0  0999 V2000
   -2.9705    0.3728   -1.2891 C   0  0  0  0  0  0  0  0  0  0  0  0
   -2.0128   -0.2794   -0.3036 C   0  0  0  0  0  0  0  0  0  0  0  0
   -1.2628    0.7675    0.5205 C   0  0  0  0  0  0  0  0  0  0  0  0
   -0.3717    0.1595    1.6097 C   0  0  0  0  0  0  0  0  0  0  0  0
    0.7629   -0.7177    1.0855 C   0  0  0  0  0  0  0  0  0  0  0  0
    1.5805    0.0511    0.1949 O   0  0  0  0  0  0  0  0  0  0  0  0
    2.6088   -0.6452   -0.3613 C   0  0  0  0  0  0  0  0  0  0  0  0
    2.8660   -1.8222   -0.1526 O   0  0  0  0  0  0  0  0  0  0  0  0
    3.3923    0.2442   -1.2771 C   0  0  0  0  0  0  0  0  0  0  0  0
   -2.4325    1.0222   -1.9871 H   0  0  0  0  0  0  0  0  0  0  0  0
   -3.4941   -0.3921   -1.8712 H   0  0  0  0  0  0  0  0  0  0  0  0
   -3.7211    0.9751   -0.7674 H   0  0  0  0  0  0  0  0  0  0  0  0
   -1.3058   -0.9012   -0.8631 H   0  0  0  0  0  0  0  0  0  0  0  0
   -2.5778   -0.9429    0.3612 H   0  0  0  0  0  0  0  0  0  0  0  0
   -0.6623    1.4004   -0.1440 H   0  0  0  0  0  0  0  0  0  0  0  0
   -1.9901    1.4297    1.0070 H   0  0  0  0  0  0  0  0  0  0  0  0
    0.0649    0.9897    2.1790 H   0  0  0  0  0  0  0  0  0  0  0  0
   -0.9856   -0.4219    2.3073 H   0  0  0  0  0  0  0  0  0  0  0  0
    0.3639   -1.5957    0.5657 H   0  0  0  0  0  0  0  0  0  0  0  0
    1.3731   -1.0562    1.9313 H   0  0  0  0  0  0  0  0  0  0  0  0
    2.7474    0.6094   -2.0803 H   0  0  0  0  0  0  0  0  0  0  0  0
    4.2131   -0.3261   -1.7215 H   0  0  0  0  0  0  0  0  0  0  0  0
    3.8141    1.0790   -0.7118 H   0  0  0  0  0  0  0  0  0  0  0  0
  1  2  1  0
  2  3  1  0
  3  4  1  0
  4  5  1  0
  5  6  1  0
  6  7  1  0
  7  8  2  0
  7  9  1  0
  1 10  1  0
  1 11  1  0
  1 12  1  0
  2 13  1  0
  2 14  1  0
  3 15  1  0
  3 16  1  0
  4 17  1  0
  4 18  1  0
  5 19  1  0
  5 20  1  0
  9 21  1  0
  9 22  1  0
  9 23  1  0
M  END
>  <Energy>  (7) 
-10.925669393384876

>  <Real charge>  (7) 
0

>  <Mult>  (7) 
1

$$$$
