mol_730 7
     RDKit          3D

 22 23  0  0  0  0  0  0  0  0999 V2000
   -3.4737    2.8248   -0.8727 Cl  0  0  0  0  0  0  0  0  0  0  0  0
   -2.7451    1.3467   -0.3796 C   0  0  0  0  0  0  0  0  0  0  0  0
   -3.5464    0.2840    0.0280 C   0  0  0  0  0  0  0  0  0  0  0  0
   -2.9534   -0.9150    0.4246 C   0  0  0  0  0  0  0  0  0  0  0  0
   -1.5605   -1.0474    0.4132 C   0  0  0  0  0  0  0  0  0  0  0  0
   -0.8960   -2.5661    0.9085 Cl  0  0  0  0  0  0  0  0  0  0  0  0
   -0.7379    0.0215    0.0058 C   0  0  0  0  0  0  0  0  0  0  0  0
   -1.3553    1.2219   -0.3935 C   0  0  0  0  0  0  0  0  0  0  0  0
    0.7328   -0.0723   -0.0191 C   0  0  0  0  0  0  0  0  0  0  0  0
    1.3625   -0.4898   -1.2074 C   0  0  0  0  0  0  0  0  0  0  0  0
    2.7504   -0.6002   -1.2870 C   0  0  0  0  0  0  0  0  0  0  0  0
    3.5346   -0.2928   -0.1786 C   0  0  0  0  0  0  0  0  0  0  0  0
    2.9345    0.1267    1.0121 C   0  0  0  0  0  0  0  0  0  0  0  0
    3.9841    0.4929    2.3383 Cl  0  0  0  0  0  0  0  0  0  0  0  0
    1.5373    0.2404    1.0995 C   0  0  0  0  0  0  0  0  0  0  0  0
    0.7889    0.7723    2.5768 Cl  0  0  0  0  0  0  0  0  0  0  0  0
   -4.6290    0.3816    0.0407 H   0  0  0  0  0  0  0  0  0  0  0  0
   -3.5817   -1.7435    0.7432 H   0  0  0  0  0  0  0  0  0  0  0  0
   -0.7452    2.0658   -0.7106 H   0  0  0  0  0  0  0  0  0  0  0  0
    0.7639   -0.7400   -2.0829 H   0  0  0  0  0  0  0  0  0  0  0  0
    3.2187   -0.9288   -2.2122 H   0  0  0  0  0  0  0  0  0  0  0  0
    4.6165   -0.3826   -0.2471 H   0  0  0  0  0  0  0  0  0  0  0  0
  1  2  1  0
  2  3  2  0
  3  4  1  0
  4  5  2  0
  5  6  1  0
  5  7  1  0
  7  8  2  0
  7  9  1  0
  9 10  2  0
 10 11  1  0
 11 12  2  0
 12 13  1  0
 13 14  1  0
 13 15  2  0
 15 16  1  0
  8  2  1  0
 15  9  1  0
  3 17  1  0
  4 18  1  0
  8 19  1  0
 10 20  1  0
 11 21  1  0
 12 22  1  0
M  END
>  <Energy>  (1) 
52.29941611011273

>  <Real charge>  (1) 
0

>  <Mult>  (1) 
1

$$$$
