mol_650 252
     RDKit          3D

 29 29  0  0  0  0  0  0  0  0999 V2000
    0.7217    0.1070    2.2506 O   0  0  0  0  0  0  0  0  0  0  0  0
    0.5024    0.7307    1.2148 C   0  0  0  0  0  0  0  0  0  0  0  0
    0.8695    2.0449    1.1261 N   0  0  0  0  0  0  0  0  0  0  0  0
    0.1418    2.9577    0.4321 C   0  0  0  0  0  0  0  0  0  0  0  0
    0.1337    4.1434    0.7451 O   0  0  0  0  0  0  0  0  0  0  0  0
   -0.6482    2.4826   -0.5675 N   0  0  0  0  0  0  0  0  0  0  0  0
   -1.0634    1.1816   -0.6708 C   0  0  0  0  0  0  0  0  0  0  0  0
   -2.0860    0.9259   -1.3004 O   0  0  0  0  0  0  0  0  0  0  0  0
   -0.1487    0.1323   -0.0373 C   0  0  0  0  0  0  0  0  0  0  0  0
   -0.9173   -1.1850    0.3396 C   0  0  0  0  0  0  0  0  0  0  0  0
   -1.3603   -2.0477   -0.8518 C   0  0  0  0  0  0  0  0  0  0  0  0
   -2.1350   -0.9275    1.2456 C   0  0  0  0  0  0  0  0  0  0  0  0
    0.9936   -0.0995   -1.0758 C   0  0  0  0  0  0  0  0  0  0  0  0
    2.0631   -1.0745   -0.6563 C   0  0  0  0  0  0  0  0  0  0  0  0
    3.3463   -0.7415   -0.4673 C   0  0  0  0  0  0  0  0  0  0  0  0
    1.2943    2.4169    1.9658 H   0  0  0  0  0  0  0  0  0  0  0  0
   -1.2731    3.1664   -0.9745 H   0  0  0  0  0  0  0  0  0  0  0  0
   -0.2351   -1.8150    0.9274 H   0  0  0  0  0  0  0  0  0  0  0  0
   -0.5099   -2.3829   -1.4513 H   0  0  0  0  0  0  0  0  0  0  0  0
   -2.0561   -1.5221   -1.5105 H   0  0  0  0  0  0  0  0  0  0  0  0
   -1.8690   -2.9516   -0.4971 H   0  0  0  0  0  0  0  0  0  0  0  0
   -2.9415   -0.4144    0.7135 H   0  0  0  0  0  0  0  0  0  0  0  0
   -2.5410   -1.8768    1.6132 H   0  0  0  0  0  0  0  0  0  0  0  0
   -1.8724   -0.3278    2.1218 H   0  0  0  0  0  0  0  0  0  0  0  0
    1.4707    0.8582   -1.3286 H   0  0  0  0  0  0  0  0  0  0  0  0
    0.5680   -0.4497   -2.0253 H   0  0  0  0  0  0  0  0  0  0  0  0
    1.7715   -2.1134   -0.5118 H   0  0  0  0  0  0  0  0  0  0  0  0
    4.0734   -1.4913   -0.1677 H   0  0  0  0  0  0  0  0  0  0  0  0
    3.7071    0.2734   -0.6017 H   0  0  0  0  0  0  0  0  0  0  0  0
  1  2  2  0
  2  3  1  0
  3  4  1  0
  4  5  2  0
  4  6  1  0
  6  7  1  0
  7  8  2  0
  7  9  1  0
  9 10  1  0
 10 11  1  0
 10 12  1  0
  9 13  1  0
 13 14  1  0
 14 15  2  3
  9  2  1  0
  3 16  1  0
  6 17  1  0
 10 18  1  0
 11 19  1  0
 11 20  1  0
 11 21  1  0
 12 22  1  0
 12 23  1  0
 12 24  1  0
 13 25  1  0
 13 26  1  0
 14 27  1  0
 15 28  1  0
 15 29  1  0
M  END
>  <Energy>  (1) 
-113.78011855467531

>  <Real charge>  (1) 
0

>  <Mult>  (1) 
1

$$$$
mol_650 139
     RDKit          3D

 29 29  0  0  0  0  0  0  0  0999 V2000
    1.0542    0.5800    2.2437 O   0  0  0  0  0  0  0  0  0  0  0  0
    0.9298    0.9710    1.0851 C   0  0  0  0  0  0  0  0  0  0  0  0
    1.6458    2.0561    0.6611 N   0  0  0  0  0  0  0  0  0  0  0  0
    1.2201    2.8953   -0.3184 C   0  0  0  0  0  0  0  0  0  0  0  0
    1.5837    4.0656   -0.3627 O   0  0  0  0  0  0  0  0  0  0  0  0
    0.3036    2.4033   -1.1925 N   0  0  0  0  0  0  0  0  0  0  0  0
   -0.5168    1.3442   -0.9124 C   0  0  0  0  0  0  0  0  0  0  0  0
   -1.6128    1.2757   -1.4611 O   0  0  0  0  0  0  0  0  0  0  0  0
    0.0536    0.2840    0.0322 C   0  0  0  0  0  0  0  0  0  0  0  0
   -1.0690   -0.5579    0.7373 C   0  0  0  0  0  0  0  0  0  0  0  0
   -2.0618    0.3152    1.5261 C   0  0  0  0  0  0  0  0  0  0  0  0
   -1.8640   -1.4941   -0.1855 C   0  0  0  0  0  0  0  0  0  0  0  0
    1.0098   -0.5864   -0.8449 C   0  0  0  0  0  0  0  0  0  0  0  0
    1.6708   -1.7460   -0.1420 C   0  0  0  0  0  0  0  0  0  0  0  0
    1.6155   -3.0134   -0.5705 C   0  0  0  0  0  0  0  0  0  0  0  0
    2.2056    2.5017    1.3766 H   0  0  0  0  0  0  0  0  0  0  0  0
   -0.0977    3.0986   -1.8085 H   0  0  0  0  0  0  0  0  0  0  0  0
   -0.5839   -1.2076    1.4793 H   0  0  0  0  0  0  0  0  0  0  0  0
   -2.6785    0.9329    0.8665 H   0  0  0  0  0  0  0  0  0  0  0  0
   -1.5520    0.9782    2.2309 H   0  0  0  0  0  0  0  0  0  0  0  0
   -2.7409   -0.3161    2.1103 H   0  0  0  0  0  0  0  0  0  0  0  0
   -1.2186   -2.1995   -0.7128 H   0  0  0  0  0  0  0  0  0  0  0  0
   -2.4493   -0.9482   -0.9297 H   0  0  0  0  0  0  0  0  0  0  0  0
   -2.5697   -2.0923    0.4027 H   0  0  0  0  0  0  0  0  0  0  0  0
    1.8219    0.0366   -1.2451 H   0  0  0  0  0  0  0  0  0  0  0  0
    0.4678   -0.9440   -1.7310 H   0  0  0  0  0  0  0  0  0  0  0  0
    2.2416   -1.5318    0.7611 H   0  0  0  0  0  0  0  0  0  0  0  0
    1.0729   -3.2951   -1.4678 H   0  0  0  0  0  0  0  0  0  0  0  0
    2.1184   -3.8059   -0.0234 H   0  0  0  0  0  0  0  0  0  0  0  0
  1  2  2  0
  2  3  1  0
  3  4  1  0
  4  5  2  0
  4  6  1  0
  6  7  1  0
  7  8  2  0
  7  9  1  0
  9 10  1  0
 10 11  1  0
 10 12  1  0
  9 13  1  0
 13 14  1  0
 14 15  2  3
  9  2  1  0
  3 16  1  0
  6 17  1  0
 10 18  1  0
 11 19  1  0
 11 20  1  0
 11 21  1  0
 12 22  1  0
 12 23  1  0
 12 24  1  0
 13 25  1  0
 13 26  1  0
 14 27  1  0
 15 28  1  0
 15 29  1  0
M  END
>  <Energy>  (2) 
-113.65073662781089

>  <Real charge>  (2) 
0

>  <Mult>  (2) 
1

$$$$
mol_650 214
     RDKit          3D

 29 29  0  0  0  0  0  0  0  0999 V2000
   -0.7519    1.2310    1.9566 O   0  0  0  0  0  0  0  0  0  0  0  0
   -0.6723    0.2066    1.2785 C   0  0  0  0  0  0  0  0  0  0  0  0
   -1.1976   -0.9604    1.7555 N   0  0  0  0  0  0  0  0  0  0  0  0
   -1.1806   -2.1691    1.1376 C   0  0  0  0  0  0  0  0  0  0  0  0
   -1.7829   -3.1341    1.5959 O   0  0  0  0  0  0  0  0  0  0  0  0
   -0.5008   -2.2484   -0.0342 N   0  0  0  0  0  0  0  0  0  0  0  0
   -0.1623   -1.1673   -0.7946 C   0  0  0  0  0  0  0  0  0  0  0  0
   -0.0116   -1.3019   -2.0079 O   0  0  0  0  0  0  0  0  0  0  0  0
    0.0528    0.1496   -0.0617 C   0  0  0  0  0  0  0  0  0  0  0  0
    1.5857    0.3577    0.2377 C   0  0  0  0  0  0  0  0  0  0  0  0
    2.2087   -0.7636    1.0861 C   0  0  0  0  0  0  0  0  0  0  0  0
    2.4539    0.5589   -1.0131 C   0  0  0  0  0  0  0  0  0  0  0  0
   -0.5062    1.3074   -0.9370 C   0  0  0  0  0  0  0  0  0  0  0  0
   -1.9874    1.2161   -1.2250 C   0  0  0  0  0  0  0  0  0  0  0  0
   -2.9105    1.9988   -0.6529 C   0  0  0  0  0  0  0  0  0  0  0  0
   -1.6996   -0.9057    2.6307 H   0  0  0  0  0  0  0  0  0  0  0  0
   -0.6362   -3.1121   -0.5424 H   0  0  0  0  0  0  0  0  0  0  0  0
    1.6841    1.2791    0.8299 H   0  0  0  0  0  0  0  0  0  0  0  0
    1.6724   -0.9055    2.0286 H   0  0  0  0  0  0  0  0  0  0  0  0
    3.2446   -0.5153    1.3439 H   0  0  0  0  0  0  0  0  0  0  0  0
    2.2266   -1.7170    0.5489 H   0  0  0  0  0  0  0  0  0  0  0  0
    2.4096   -0.3047   -1.6832 H   0  0  0  0  0  0  0  0  0  0  0  0
    2.1570    1.4501   -1.5728 H   0  0  0  0  0  0  0  0  0  0  0  0
    3.5036    0.7019   -0.7319 H   0  0  0  0  0  0  0  0  0  0  0  0
   -0.0077    1.3326   -1.9136 H   0  0  0  0  0  0  0  0  0  0  0  0
   -0.2837    2.2721   -0.4610 H   0  0  0  0  0  0  0  0  0  0  0  0
   -2.3032    0.4881   -1.9717 H   0  0  0  0  0  0  0  0  0  0  0  0
   -2.6439    2.7498    0.0863 H   0  0  0  0  0  0  0  0  0  0  0  0
   -3.9606    1.9055   -0.9133 H   0  0  0  0  0  0  0  0  0  0  0  0
  1  2  2  0
  2  3  1  0
  3  4  1  0
  4  5  2  0
  4  6  1  0
  6  7  1  0
  7  8  2  0
  7  9  1  0
  9 10  1  0
 10 11  1  0
 10 12  1  0
  9 13  1  0
 13 14  1  0
 14 15  2  3
  9  2  1  0
  3 16  1  0
  6 17  1  0
 10 18  1  0
 11 19  1  0
 11 20  1  0
 11 21  1  0
 12 22  1  0
 12 23  1  0
 12 24  1  0
 13 25  1  0
 13 26  1  0
 14 27  1  0
 15 28  1  0
 15 29  1  0
M  END
>  <Energy>  (3) 
-113.50579899770702

>  <Real charge>  (3) 
0

>  <Mult>  (3) 
1

$$$$
mol_650 381
     RDKit          3D

 29 29  0  0  0  0  0  0  0  0999 V2000
   -0.6772   -0.0559   -2.5266 O   0  0  0  0  0  0  0  0  0  0  0  0
   -0.5956    0.4952   -1.4289 C   0  0  0  0  0  0  0  0  0  0  0  0
   -1.0952    1.7555   -1.2697 N   0  0  0  0  0  0  0  0  0  0  0  0
   -0.9191    2.5556   -0.1875 C   0  0  0  0  0  0  0  0  0  0  0  0
   -1.2038    3.7481   -0.2182 O   0  0  0  0  0  0  0  0  0  0  0  0
   -0.3684    1.9846    0.9133 N   0  0  0  0  0  0  0  0  0  0  0  0
    0.2928    0.7903    0.9316 C   0  0  0  0  0  0  0  0  0  0  0  0
    1.0498    0.5349    1.8674 O   0  0  0  0  0  0  0  0  0  0  0  0
   -0.0075   -0.1856   -0.1989 C   0  0  0  0  0  0  0  0  0  0  0  0
   -1.0606   -1.2560    0.2800 C   0  0  0  0  0  0  0  0  0  0  0  0
   -2.3827   -0.6488    0.7776 C   0  0  0  0  0  0  0  0  0  0  0  0
   -0.5378   -2.2249    1.3512 C   0  0  0  0  0  0  0  0  0  0  0  0
    1.3245   -0.8684   -0.6238 C   0  0  0  0  0  0  0  0  0  0  0  0
    2.3207    0.0539   -1.2890 C   0  0  0  0  0  0  0  0  0  0  0  0
    3.4047    0.5497   -0.6797 C   0  0  0  0  0  0  0  0  0  0  0  0
   -1.4586    2.2022   -2.1003 H   0  0  0  0  0  0  0  0  0  0  0  0
   -0.1423    2.6217    1.6650 H   0  0  0  0  0  0  0  0  0  0  0  0
   -1.3184   -1.8752   -0.5916 H   0  0  0  0  0  0  0  0  0  0  0  0
   -2.2408   -0.0562    1.6867 H   0  0  0  0  0  0  0  0  0  0  0  0
   -3.1014   -1.4418    1.0140 H   0  0  0  0  0  0  0  0  0  0  0  0
   -2.8496   -0.0151    0.0184 H   0  0  0  0  0  0  0  0  0  0  0  0
    0.3158   -2.8052    0.9901 H   0  0  0  0  0  0  0  0  0  0  0  0
   -1.3144   -2.9484    1.6249 H   0  0  0  0  0  0  0  0  0  0  0  0
   -0.2422   -1.7014    2.2650 H   0  0  0  0  0  0  0  0  0  0  0  0
    1.8107   -1.3322    0.2439 H   0  0  0  0  0  0  0  0  0  0  0  0
    1.1190   -1.6884   -1.3249 H   0  0  0  0  0  0  0  0  0  0  0  0
    2.1508    0.2928   -2.3385 H   0  0  0  0  0  0  0  0  0  0  0  0
    3.6268    0.3278    0.3610 H   0  0  0  0  0  0  0  0  0  0  0  0
    4.1001    1.1913   -1.2128 H   0  0  0  0  0  0  0  0  0  0  0  0
  1  2  2  0
  2  3  1  0
  3  4  1  0
  4  5  2  0
  4  6  1  0
  6  7  1  0
  7  8  2  0
  7  9  1  0
  9 10  1  0
 10 11  1  0
 10 12  1  0
  9 13  1  0
 13 14  1  0
 14 15  2  3
  9  2  1  0
  3 16  1  0
  6 17  1  0
 10 18  1  0
 11 19  1  0
 11 20  1  0
 11 21  1  0
 12 22  1  0
 12 23  1  0
 12 24  1  0
 13 25  1  0
 13 26  1  0
 14 27  1  0
 15 28  1  0
 15 29  1  0
M  END
>  <Energy>  (4) 
-113.48991108966614

>  <Real charge>  (4) 
0

>  <Mult>  (4) 
1

$$$$
mol_650 187
     RDKit          3D

 29 29  0  0  0  0  0  0  0  0999 V2000
    0.3163    0.6399   -2.4291 O   0  0  0  0  0  0  0  0  0  0  0  0
   -0.0422    0.9684   -1.3003 C   0  0  0  0  0  0  0  0  0  0  0  0
   -0.5741    2.2106   -1.0918 N   0  0  0  0  0  0  0  0  0  0  0  0
   -0.4584    2.8785    0.0855 C   0  0  0  0  0  0  0  0  0  0  0  0
   -0.4868    4.1038    0.1312 O   0  0  0  0  0  0  0  0  0  0  0  0
   -0.2213    2.1321    1.1958 N   0  0  0  0  0  0  0  0  0  0  0  0
    0.3016    0.8678    1.1672 C   0  0  0  0  0  0  0  0  0  0  0  0
    0.9108    0.4415    2.1459 O   0  0  0  0  0  0  0  0  0  0  0  0
   -0.0075    0.0434   -0.0838 C   0  0  0  0  0  0  0  0  0  0  0  0
   -1.4593   -0.5534    0.0977 C   0  0  0  0  0  0  0  0  0  0  0  0
   -1.9737   -1.3144   -1.1356 C   0  0  0  0  0  0  0  0  0  0  0  0
   -1.5998   -1.4765    1.3192 C   0  0  0  0  0  0  0  0  0  0  0  0
    1.0674   -1.0593   -0.2703 C   0  0  0  0  0  0  0  0  0  0  0  0
    2.4668   -0.5519   -0.5357 C   0  0  0  0  0  0  0  0  0  0  0  0
    3.4656   -0.5992    0.3544 C   0  0  0  0  0  0  0  0  0  0  0  0
   -0.5846    2.8100   -1.9068 H   0  0  0  0  0  0  0  0  0  0  0  0
    0.0025    2.6678    2.0240 H   0  0  0  0  0  0  0  0  0  0  0  0
   -2.1571    0.2807    0.2589 H   0  0  0  0  0  0  0  0  0  0  0  0
   -3.0028   -1.6542   -0.9713 H   0  0  0  0  0  0  0  0  0  0  0  0
   -1.3689   -2.2003   -1.3505 H   0  0  0  0  0  0  0  0  0  0  0  0
   -1.9893   -0.6812   -2.0271 H   0  0  0  0  0  0  0  0  0  0  0  0
   -0.9861   -2.3773    1.2220 H   0  0  0  0  0  0  0  0  0  0  0  0
   -1.3249   -0.9682    2.2474 H   0  0  0  0  0  0  0  0  0  0  0  0
   -2.6403   -1.8021    1.4323 H   0  0  0  0  0  0  0  0  0  0  0  0
    1.0927   -1.7128    0.6107 H   0  0  0  0  0  0  0  0  0  0  0  0
    0.8065   -1.7065   -1.1162 H   0  0  0  0  0  0  0  0  0  0  0  0
    2.6716   -0.1588   -1.5311 H   0  0  0  0  0  0  0  0  0  0  0  0
    3.3179   -0.9908    1.3573 H   0  0  0  0  0  0  0  0  0  0  0  0
    4.4572   -0.2377    0.1001 H   0  0  0  0  0  0  0  0  0  0  0  0
  1  2  2  0
  2  3  1  0
  3  4  1  0
  4  5  2  0
  4  6  1  0
  6  7  1  0
  7  8  2  0
  7  9  1  0
  9 10  1  0
 10 11  1  0
 10 12  1  0
  9 13  1  0
 13 14  1  0
 14 15  2  3
  9  2  1  0
  3 16  1  0
  6 17  1  0
 10 18  1  0
 11 19  1  0
 11 20  1  0
 11 21  1  0
 12 22  1  0
 12 23  1  0
 12 24  1  0
 13 25  1  0
 13 26  1  0
 14 27  1  0
 15 28  1  0
 15 29  1  0
M  END
>  <Energy>  (5) 
-113.47047929306278

>  <Real charge>  (5) 
0

>  <Mult>  (5) 
1

$$$$
mol_650 31
     RDKit          3D

 29 29  0  0  0  0  0  0  0  0999 V2000
    0.3467   -1.0928    1.9148 O   0  0  0  0  0  0  0  0  0  0  0  0
    0.7227   -0.3891    0.9790 C   0  0  0  0  0  0  0  0  0  0  0  0
    1.9547    0.1962    1.0438 N   0  0  0  0  0  0  0  0  0  0  0  0
    2.6355    0.7257   -0.0033 C   0  0  0  0  0  0  0  0  0  0  0  0
    3.8332    0.9797    0.0711 O   0  0  0  0  0  0  0  0  0  0  0  0
    1.9435    0.9029   -1.1570 N   0  0  0  0  0  0  0  0  0  0  0  0
    0.6940    0.4222   -1.4237 C   0  0  0  0  0  0  0  0  0  0  0  0
    0.2719    0.4529   -2.5794 O   0  0  0  0  0  0  0  0  0  0  0  0
   -0.1358   -0.0738   -0.2415 C   0  0  0  0  0  0  0  0  0  0  0  0
   -0.9411   -1.3421   -0.7198 C   0  0  0  0  0  0  0  0  0  0  0  0
   -2.0994   -1.7802    0.1882 C   0  0  0  0  0  0  0  0  0  0  0  0
   -0.0251   -2.5478   -0.9894 C   0  0  0  0  0  0  0  0  0  0  0  0
   -1.1082    1.0748    0.1588 C   0  0  0  0  0  0  0  0  0  0  0  0
   -0.4802    2.4177    0.4451 C   0  0  0  0  0  0  0  0  0  0  0  0
   -0.3342    2.9282    1.6742 C   0  0  0  0  0  0  0  0  0  0  0  0
    2.5063   -0.0199    1.8625 H   0  0  0  0  0  0  0  0  0  0  0  0
    2.4806    1.2217   -1.9516 H   0  0  0  0  0  0  0  0  0  0  0  0
   -1.4111   -1.0952   -1.6824 H   0  0  0  0  0  0  0  0  0  0  0  0
   -1.7643   -2.0603    1.1896 H   0  0  0  0  0  0  0  0  0  0  0  0
   -2.8556   -0.9955    0.2824 H   0  0  0  0  0  0  0  0  0  0  0  0
   -2.6064   -2.6531   -0.2391 H   0  0  0  0  0  0  0  0  0  0  0  0
    0.4168   -2.9377   -0.0672 H   0  0  0  0  0  0  0  0  0  0  0  0
   -0.5932   -3.3631   -1.4512 H   0  0  0  0  0  0  0  0  0  0  0  0
    0.7877   -2.2900   -1.6752 H   0  0  0  0  0  0  0  0  0  0  0  0
   -1.8419    1.2294   -0.6440 H   0  0  0  0  0  0  0  0  0  0  0  0
   -1.6850    0.7745    1.0436 H   0  0  0  0  0  0  0  0  0  0  0  0
   -0.1646    3.0140   -0.4104 H   0  0  0  0  0  0  0  0  0  0  0  0
   -0.6522    2.3890    2.5623 H   0  0  0  0  0  0  0  0  0  0  0  0
    0.1046    3.9114    1.8200 H   0  0  0  0  0  0  0  0  0  0  0  0
  1  2  2  0
  2  3  1  0
  3  4  1  0
  4  5  2  0
  4  6  1  0
  6  7  1  0
  7  8  2  0
  7  9  1  0
  9 10  1  0
 10 11  1  0
 10 12  1  0
  9 13  1  0
 13 14  1  0
 14 15  2  3
  9  2  1  0
  3 16  1  0
  6 17  1  0
 10 18  1  0
 11 19  1  0
 11 20  1  0
 11 21  1  0
 12 22  1  0
 12 23  1  0
 12 24  1  0
 13 25  1  0
 13 26  1  0
 14 27  1  0
 15 28  1  0
 15 29  1  0
M  END
>  <Energy>  (6) 
-113.03763215641914

>  <Real charge>  (6) 
0

>  <Mult>  (6) 
1

$$$$
mol_650 242
     RDKit          3D

 29 29  0  0  0  0  0  0  0  0999 V2000
    0.4435    1.0652   -2.1494 O   0  0  0  0  0  0  0  0  0  0  0  0
   -0.1602    0.9822   -1.0799 C   0  0  0  0  0  0  0  0  0  0  0  0
   -1.0349    1.9694   -0.7286 N   0  0  0  0  0  0  0  0  0  0  0  0
   -1.9748    1.8838    0.2454 C   0  0  0  0  0  0  0  0  0  0  0  0
   -2.8908    2.6952    0.3287 O   0  0  0  0  0  0  0  0  0  0  0  0
   -1.8900    0.8221    1.0869 N   0  0  0  0  0  0  0  0  0  0  0  0
   -1.0952   -0.2752    0.9144 C   0  0  0  0  0  0  0  0  0  0  0  0
   -1.3026   -1.2747    1.5998 O   0  0  0  0  0  0  0  0  0  0  0  0
    0.0518   -0.1560   -0.0819 C   0  0  0  0  0  0  0  0  0  0  0  0
    0.2357   -1.4879   -0.9058 C   0  0  0  0  0  0  0  0  0  0  0  0
    0.8184   -2.6782   -0.1303 C   0  0  0  0  0  0  0  0  0  0  0  0
   -1.0630   -1.9259   -1.6038 C   0  0  0  0  0  0  0  0  0  0  0  0
    1.3458    0.1788    0.7169 C   0  0  0  0  0  0  0  0  0  0  0  0
    1.3494    1.4864    1.4718 C   0  0  0  0  0  0  0  0  0  0  0  0
    2.0537    2.5617    1.0972 C   0  0  0  0  0  0  0  0  0  0  0  0
   -1.1604    2.7135   -1.4007 H   0  0  0  0  0  0  0  0  0  0  0  0
   -2.6483    0.7231    1.7478 H   0  0  0  0  0  0  0  0  0  0  0  0
    0.9605   -1.2878   -1.7077 H   0  0  0  0  0  0  0  0  0  0  0  0
    0.9202   -3.5474   -0.7905 H   0  0  0  0  0  0  0  0  0  0  0  0
    1.8195   -2.4581    0.2514 H   0  0  0  0  0  0  0  0  0  0  0  0
    0.1869   -2.9821    0.7078 H   0  0  0  0  0  0  0  0  0  0  0  0
   -1.8223   -2.2492   -0.8849 H   0  0  0  0  0  0  0  0  0  0  0  0
   -0.8691   -2.7682   -2.2772 H   0  0  0  0  0  0  0  0  0  0  0  0
   -1.4870   -1.1182   -2.2084 H   0  0  0  0  0  0  0  0  0  0  0  0
    2.2052    0.1571    0.0323 H   0  0  0  0  0  0  0  0  0  0  0  0
    1.5342   -0.5998    1.4671 H   0  0  0  0  0  0  0  0  0  0  0  0
    0.7707    1.5346    2.3932 H   0  0  0  0  0  0  0  0  0  0  0  0
    2.6646    2.5635    0.1984 H   0  0  0  0  0  0  0  0  0  0  0  0
    2.0386    3.4720    1.6900 H   0  0  0  0  0  0  0  0  0  0  0  0
  1  2  2  0
  2  3  1  0
  3  4  1  0
  4  5  2  0
  4  6  1  0
  6  7  1  0
  7  8  2  0
  7  9  1  0
  9 10  1  0
 10 11  1  0
 10 12  1  0
  9 13  1  0
 13 14  1  0
 14 15  2  3
  9  2  1  0
  3 16  1  0
  6 17  1  0
 10 18  1  0
 11 19  1  0
 11 20  1  0
 11 21  1  0
 12 22  1  0
 12 23  1  0
 12 24  1  0
 13 25  1  0
 13 26  1  0
 14 27  1  0
 15 28  1  0
 15 29  1  0
M  END
>  <Energy>  (7) 
-113.01055335111452

>  <Real charge>  (7) 
0

>  <Mult>  (7) 
1

$$$$
