mol_447 178
     RDKit          3D

 21 20  0  0  0  0  0  0  0  0999 V2000
    1.9227    0.8931    0.2171 C   0  0  0  0  0  0  0  0  0  0  0  0
    1.0064    0.2998   -0.8429 C   0  0  0  0  0  0  0  0  0  0  0  0
   -0.1366   -0.5892   -0.3119 C   0  0  0  0  0  0  0  0  0  0  0  0
    0.4134   -1.8661    0.3370 C   0  0  0  0  0  0  0  0  0  0  0  0
   -0.8951   -0.9943   -1.4608 O   0  0  0  0  0  0  0  0  0  0  0  0
   -1.0861    0.1258    0.6731 C   0  0  0  0  0  0  0  0  0  0  0  0
   -1.7430    1.3836    0.1157 C   0  0  0  0  0  0  0  0  0  0  0  0
    2.4202    0.1142    0.8017 H   0  0  0  0  0  0  0  0  0  0  0  0
    1.3765    1.5477    0.9020 H   0  0  0  0  0  0  0  0  0  0  0  0
    2.7025    1.4948   -0.2614 H   0  0  0  0  0  0  0  0  0  0  0  0
    1.6153   -0.2845   -1.5461 H   0  0  0  0  0  0  0  0  0  0  0  0
    0.5907    1.1127   -1.4519 H   0  0  0  0  0  0  0  0  0  0  0  0
   -0.3998   -2.5575    0.5873 H   0  0  0  0  0  0  0  0  0  0  0  0
    0.9721   -1.6548    1.2536 H   0  0  0  0  0  0  0  0  0  0  0  0
    1.0698   -2.4041   -0.3564 H   0  0  0  0  0  0  0  0  0  0  0  0
   -1.6249   -1.5600   -1.1556 H   0  0  0  0  0  0  0  0  0  0  0  0
   -1.8943   -0.5632    0.9520 H   0  0  0  0  0  0  0  0  0  0  0  0
   -0.5575    0.3786    1.5996 H   0  0  0  0  0  0  0  0  0  0  0  0
   -2.2894    1.1734   -0.8087 H   0  0  0  0  0  0  0  0  0  0  0  0
   -1.0059    2.1660   -0.0862 H   0  0  0  0  0  0  0  0  0  0  0  0
   -2.4570    1.7841    0.8428 H   0  0  0  0  0  0  0  0  0  0  0  0
  1  2  1  0
  2  3  1  0
  3  4  1  0
  3  5  1  0
  3  6  1  0
  6  7  1  0
  1  8  1  0
  1  9  1  0
  1 10  1  0
  2 11  1  0
  2 12  1  0
  4 13  1  0
  4 14  1  0
  4 15  1  0
  5 16  1  0
  6 17  1  0
  6 18  1  0
  7 19  1  0
  7 20  1  0
  7 21  1  0
M  END
>  <Energy>  (1) 
9.900475967772152

>  <Real charge>  (1) 
0

>  <Mult>  (1) 
1

$$$$
mol_447 302
     RDKit          3D

 21 20  0  0  0  0  0  0  0  0999 V2000
   -2.3850   -0.3795    0.3136 C   0  0  0  0  0  0  0  0  0  0  0  0
   -0.9040   -0.6165    0.5934 C   0  0  0  0  0  0  0  0  0  0  0  0
    0.0539    0.3325   -0.1580 C   0  0  0  0  0  0  0  0  0  0  0  0
   -0.2735    1.8059    0.1189 C   0  0  0  0  0  0  0  0  0  0  0  0
   -0.1085    0.1055   -1.5611 O   0  0  0  0  0  0  0  0  0  0  0  0
    1.5293    0.0656    0.2212 C   0  0  0  0  0  0  0  0  0  0  0  0
    2.0269   -1.3410   -0.0928 C   0  0  0  0  0  0  0  0  0  0  0  0
   -2.7175    0.5864    0.7047 H   0  0  0  0  0  0  0  0  0  0  0  0
   -2.9846   -1.1541    0.8032 H   0  0  0  0  0  0  0  0  0  0  0  0
   -2.6010   -0.4160   -0.7584 H   0  0  0  0  0  0  0  0  0  0  0  0
   -0.7330   -0.5425    1.6741 H   0  0  0  0  0  0  0  0  0  0  0  0
   -0.6953   -1.6524    0.3005 H   0  0  0  0  0  0  0  0  0  0  0  0
   -1.2521    2.0833   -0.2869 H   0  0  0  0  0  0  0  0  0  0  0  0
    0.4493    2.4648   -0.3766 H   0  0  0  0  0  0  0  0  0  0  0  0
   -0.2585    2.0261    1.1912 H   0  0  0  0  0  0  0  0  0  0  0  0
    0.5000    0.6990   -2.0336 H   0  0  0  0  0  0  0  0  0  0  0  0
    1.6831    0.2671    1.2884 H   0  0  0  0  0  0  0  0  0  0  0  0
    2.1720    0.7634   -0.3315 H   0  0  0  0  0  0  0  0  0  0  0  0
    3.0992   -1.4115    0.1177 H   0  0  0  0  0  0  0  0  0  0  0  0
    1.8757   -1.5942   -1.1465 H   0  0  0  0  0  0  0  0  0  0  0  0
    1.5235   -2.0920    0.5226 H   0  0  0  0  0  0  0  0  0  0  0  0
  1  2  1  0
  2  3  1  0
  3  4  1  0
  3  5  1  0
  3  6  1  0
  6  7  1  0
  1  8  1  0
  1  9  1  0
  1 10  1  0
  2 11  1  0
  2 12  1  0
  4 13  1  0
  4 14  1  0
  4 15  1  0
  5 16  1  0
  6 17  1  0
  6 18  1  0
  7 19  1  0
  7 20  1  0
  7 21  1  0
M  END
>  <Energy>  (2) 
10.094833699061448

>  <Real charge>  (2) 
0

>  <Mult>  (2) 
1

$$$$
mol_447 111
     RDKit          3D

 21 20  0  0  0  0  0  0  0  0999 V2000
    2.5729    0.1335   -0.3007 C   0  0  0  0  0  0  0  0  0  0  0  0
    1.3149    0.3903    0.5218 C   0  0  0  0  0  0  0  0  0  0  0  0
   -0.0113    0.0191   -0.1825 C   0  0  0  0  0  0  0  0  0  0  0  0
   -0.0636   -1.4707   -0.5337 C   0  0  0  0  0  0  0  0  0  0  0  0
   -0.1007    0.7484   -1.4092 O   0  0  0  0  0  0  0  0  0  0  0  0
   -1.1924    0.4296    0.7280 C   0  0  0  0  0  0  0  0  0  0  0  0
   -2.5753    0.2143    0.1226 C   0  0  0  0  0  0  0  0  0  0  0  0
    3.4504    0.5098    0.2356 H   0  0  0  0  0  0  0  0  0  0  0  0
    2.7294   -0.9350   -0.4732 H   0  0  0  0  0  0  0  0  0  0  0  0
    2.5301    0.6413   -1.2689 H   0  0  0  0  0  0  0  0  0  0  0  0
    1.3027    1.4615    0.7622 H   0  0  0  0  0  0  0  0  0  0  0  0
    1.3965   -0.1494    1.4733 H   0  0  0  0  0  0  0  0  0  0  0  0
    0.7480   -1.7500   -1.2138 H   0  0  0  0  0  0  0  0  0  0  0  0
   -0.9836   -1.7229   -1.0715 H   0  0  0  0  0  0  0  0  0  0  0  0
    0.0002   -2.0969    0.3618 H   0  0  0  0  0  0  0  0  0  0  0  0
   -0.0683    1.6967   -1.1964 H   0  0  0  0  0  0  0  0  0  0  0  0
   -1.1344   -0.1097    1.6814 H   0  0  0  0  0  0  0  0  0  0  0  0
   -1.1078    1.4993    0.9604 H   0  0  0  0  0  0  0  0  0  0  0  0
   -2.6753    0.7229   -0.8409 H   0  0  0  0  0  0  0  0  0  0  0  0
   -2.7911   -0.8484   -0.0193 H   0  0  0  0  0  0  0  0  0  0  0  0
   -3.3413    0.6164    0.7940 H   0  0  0  0  0  0  0  0  0  0  0  0
  1  2  1  0
  2  3  1  0
  3  4  1  0
  3  5  1  0
  3  6  1  0
  6  7  1  0
  1  8  1  0
  1  9  1  0
  1 10  1  0
  2 11  1  0
  2 12  1  0
  4 13  1  0
  4 14  1  0
  4 15  1  0
  5 16  1  0
  6 17  1  0
  6 18  1  0
  7 19  1  0
  7 20  1  0
  7 21  1  0
M  END
>  <Energy>  (3) 
10.104731307498028

>  <Real charge>  (3) 
0

>  <Mult>  (3) 
1

$$$$
mol_447 153
     RDKit          3D

 21 20  0  0  0  0  0  0  0  0999 V2000
    2.2274   -0.6280   -0.3965 C   0  0  0  0  0  0  0  0  0  0  0  0
    1.4563    0.6267   -0.0136 C   0  0  0  0  0  0  0  0  0  0  0  0
   -0.0344    0.4168    0.3356 C   0  0  0  0  0  0  0  0  0  0  0  0
   -0.1956   -0.4940    1.5561 C   0  0  0  0  0  0  0  0  0  0  0  0
   -0.5543    1.6997    0.7124 O   0  0  0  0  0  0  0  0  0  0  0  0
   -0.8340   -0.1019   -0.8794 C   0  0  0  0  0  0  0  0  0  0  0  0
   -2.3424   -0.1707   -0.6625 C   0  0  0  0  0  0  0  0  0  0  0  0
    1.8136   -1.0982   -1.2928 H   0  0  0  0  0  0  0  0  0  0  0  0
    2.2305   -1.3624    0.4138 H   0  0  0  0  0  0  0  0  0  0  0  0
    3.2699   -0.3710   -0.6121 H   0  0  0  0  0  0  0  0  0  0  0  0
    1.5363    1.3536   -0.8328 H   0  0  0  0  0  0  0  0  0  0  0  0
    1.9600    1.1049    0.8373 H   0  0  0  0  0  0  0  0  0  0  0  0
   -1.2195   -0.4627    1.9446 H   0  0  0  0  0  0  0  0  0  0  0  0
    0.0551   -1.5344    1.3278 H   0  0  0  0  0  0  0  0  0  0  0  0
    0.4456   -0.1563    2.3787 H   0  0  0  0  0  0  0  0  0  0  0  0
   -0.4816    2.2896   -0.0574 H   0  0  0  0  0  0  0  0  0  0  0  0
   -0.4819   -1.0978   -1.1709 H   0  0  0  0  0  0  0  0  0  0  0  0
   -0.6585    0.5645   -1.7337 H   0  0  0  0  0  0  0  0  0  0  0  0
   -2.7532    0.8044   -0.3840 H   0  0  0  0  0  0  0  0  0  0  0  0
   -2.6029   -0.8938    0.1157 H   0  0  0  0  0  0  0  0  0  0  0  0
   -2.8366   -0.4891   -1.5864 H   0  0  0  0  0  0  0  0  0  0  0  0
  1  2  1  0
  2  3  1  0
  3  4  1  0
  3  5  1  0
  3  6  1  0
  6  7  1  0
  1  8  1  0
  1  9  1  0
  1 10  1  0
  2 11  1  0
  2 12  1  0
  4 13  1  0
  4 14  1  0
  4 15  1  0
  5 16  1  0
  6 17  1  0
  6 18  1  0
  7 19  1  0
  7 20  1  0
  7 21  1  0
M  END
>  <Energy>  (4) 
10.147985467393758

>  <Real charge>  (4) 
0

>  <Mult>  (4) 
1

$$$$
mol_447 370
     RDKit          3D

 21 20  0  0  0  0  0  0  0  0999 V2000
   -1.8843    0.8549   -0.2786 C   0  0  0  0  0  0  0  0  0  0  0  0
   -1.1258   -0.0892    0.6427 C   0  0  0  0  0  0  0  0  0  0  0  0
    0.1557   -0.7098    0.0468 C   0  0  0  0  0  0  0  0  0  0  0  0
   -0.1776   -1.6387   -1.1277 C   0  0  0  0  0  0  0  0  0  0  0  0
    0.7390   -1.5492    1.0537 O   0  0  0  0  0  0  0  0  0  0  0  0
    1.2134    0.3197   -0.4058 C   0  0  0  0  0  0  0  0  0  0  0  0
    1.6566    1.3053    0.6696 C   0  0  0  0  0  0  0  0  0  0  0  0
   -1.2736    1.7152   -0.5662 H   0  0  0  0  0  0  0  0  0  0  0  0
   -2.2212    0.3475   -1.1868 H   0  0  0  0  0  0  0  0  0  0  0  0
   -2.7733    1.2381    0.2334 H   0  0  0  0  0  0  0  0  0  0  0  0
   -0.8846    0.4396    1.5734 H   0  0  0  0  0  0  0  0  0  0  0  0
   -1.8018   -0.8971    0.9537 H   0  0  0  0  0  0  0  0  0  0  0  0
    0.7135   -2.1888   -1.4528 H   0  0  0  0  0  0  0  0  0  0  0  0
   -0.5714   -1.0909   -1.9891 H   0  0  0  0  0  0  0  0  0  0  0  0
   -0.9125   -2.3955   -0.8304 H   0  0  0  0  0  0  0  0  0  0  0  0
    0.8534   -1.0221    1.8621 H   0  0  0  0  0  0  0  0  0  0  0  0
    0.8460    0.8849   -1.2705 H   0  0  0  0  0  0  0  0  0  0  0  0
    2.1108   -0.2179   -0.7396 H   0  0  0  0  0  0  0  0  0  0  0  0
    0.8291    1.9382    1.0022 H   0  0  0  0  0  0  0  0  0  0  0  0
    2.0743    0.7910    1.5399 H   0  0  0  0  0  0  0  0  0  0  0  0
    2.4343    1.9648    0.2701 H   0  0  0  0  0  0  0  0  0  0  0  0
  1  2  1  0
  2  3  1  0
  3  4  1  0
  3  5  1  0
  3  6  1  0
  6  7  1  0
  1  8  1  0
  1  9  1  0
  1 10  1  0
  2 11  1  0
  2 12  1  0
  4 13  1  0
  4 14  1  0
  4 15  1  0
  5 16  1  0
  6 17  1  0
  6 18  1  0
  7 19  1  0
  7 20  1  0
  7 21  1  0
M  END
>  <Energy>  (5) 
10.20865970146253

>  <Real charge>  (5) 
0

>  <Mult>  (5) 
1

$$$$
mol_447 346
     RDKit          3D

 21 20  0  0  0  0  0  0  0  0999 V2000
   -2.2367    0.8525   -0.0950 C   0  0  0  0  0  0  0  0  0  0  0  0
   -0.7324    0.8345   -0.3475 C   0  0  0  0  0  0  0  0  0  0  0  0
   -0.0169   -0.4533    0.1171 C   0  0  0  0  0  0  0  0  0  0  0  0
   -0.6277   -1.7033   -0.5298 C   0  0  0  0  0  0  0  0  0  0  0  0
   -0.1821   -0.6041    1.5298 O   0  0  0  0  0  0  0  0  0  0  0  0
    1.4951   -0.4217   -0.2076 C   0  0  0  0  0  0  0  0  0  0  0  0
    2.2731    0.7346    0.4109 C   0  0  0  0  0  0  0  0  0  0  0  0
   -2.7550    0.1065   -0.7043 H   0  0  0  0  0  0  0  0  0  0  0  0
   -2.6467    1.8327   -0.3600 H   0  0  0  0  0  0  0  0  0  0  0  0
   -2.4680    0.6661    0.9581 H   0  0  0  0  0  0  0  0  0  0  0  0
   -0.3179    1.6973    0.1871 H   0  0  0  0  0  0  0  0  0  0  0  0
   -0.5508    0.9977   -1.4167 H   0  0  0  0  0  0  0  0  0  0  0  0
   -0.6113   -1.6400   -1.6226 H   0  0  0  0  0  0  0  0  0  0  0  0
   -0.0791   -2.6039   -0.2291 H   0  0  0  0  0  0  0  0  0  0  0  0
   -1.6598   -1.8638   -0.2003 H   0  0  0  0  0  0  0  0  0  0  0  0
    0.0640    0.2336    1.9566 H   0  0  0  0  0  0  0  0  0  0  0  0
    1.9565   -1.3489    0.1568 H   0  0  0  0  0  0  0  0  0  0  0  0
    1.6394   -0.3979   -1.2949 H   0  0  0  0  0  0  0  0  0  0  0  0
    1.9427    1.6994    0.0162 H   0  0  0  0  0  0  0  0  0  0  0  0
    3.3376    0.6326    0.1747 H   0  0  0  0  0  0  0  0  0  0  0  0
    2.1760    0.7493    1.5003 H   0  0  0  0  0  0  0  0  0  0  0  0
  1  2  1  0
  2  3  1  0
  3  4  1  0
  3  5  1  0
  3  6  1  0
  6  7  1  0
  1  8  1  0
  1  9  1  0
  1 10  1  0
  2 11  1  0
  2 12  1  0
  4 13  1  0
  4 14  1  0
  4 15  1  0
  5 16  1  0
  6 17  1  0
  6 18  1  0
  7 19  1  0
  7 20  1  0
  7 21  1  0
M  END
>  <Energy>  (6) 
10.387117569892071

>  <Real charge>  (6) 
0

>  <Mult>  (6) 
1

$$$$
mol_447 394
     RDKit          3D

 21 20  0  0  0  0  0  0  0  0999 V2000
    2.1127   -1.1338    0.6449 C   0  0  0  0  0  0  0  0  0  0  0  0
    1.5837   -0.0204   -0.2530 C   0  0  0  0  0  0  0  0  0  0  0  0
    0.1279    0.4137    0.0369 C   0  0  0  0  0  0  0  0  0  0  0  0
   -0.2262    1.5869   -0.8870 C   0  0  0  0  0  0  0  0  0  0  0  0
    0.0813    0.8849    1.3868 O   0  0  0  0  0  0  0  0  0  0  0  0
   -0.8528   -0.7692   -0.1224 C   0  0  0  0  0  0  0  0  0  0  0  0
   -2.3284   -0.4180    0.0410 C   0  0  0  0  0  0  0  0  0  0  0  0
    1.5852   -2.0757    0.4696 H   0  0  0  0  0  0  0  0  0  0  0  0
    3.1730   -1.3089    0.4342 H   0  0  0  0  0  0  0  0  0  0  0  0
    2.0209   -0.8737    1.7037 H   0  0  0  0  0  0  0  0  0  0  0  0
    2.2469    0.8439   -0.1158 H   0  0  0  0  0  0  0  0  0  0  0  0
    1.6793   -0.3344   -1.2997 H   0  0  0  0  0  0  0  0  0  0  0  0
   -1.1919    2.0316   -0.6241 H   0  0  0  0  0  0  0  0  0  0  0  0
    0.5081    2.3949   -0.7863 H   0  0  0  0  0  0  0  0  0  0  0  0
   -0.2555    1.2767   -1.9365 H   0  0  0  0  0  0  0  0  0  0  0  0
   -0.7877    1.2919    1.5397 H   0  0  0  0  0  0  0  0  0  0  0  0
   -0.7143   -1.2347   -1.1059 H   0  0  0  0  0  0  0  0  0  0  0  0
   -0.6291   -1.5314    0.6337 H   0  0  0  0  0  0  0  0  0  0  0  0
   -2.5276    0.0469    1.0107 H   0  0  0  0  0  0  0  0  0  0  0  0
   -2.9347   -1.3279   -0.0217 H   0  0  0  0  0  0  0  0  0  0  0  0
   -2.6709    0.2567   -0.7487 H   0  0  0  0  0  0  0  0  0  0  0  0
  1  2  1  0
  2  3  1  0
  3  4  1  0
  3  5  1  0
  3  6  1  0
  6  7  1  0
  1  8  1  0
  1  9  1  0
  1 10  1  0
  2 11  1  0
  2 12  1  0
  4 13  1  0
  4 14  1  0
  4 15  1  0
  5 16  1  0
  6 17  1  0
  6 18  1  0
  7 19  1  0
  7 20  1  0
  7 21  1  0
M  END
>  <Energy>  (7) 
10.468888185032137

>  <Real charge>  (7) 
0

>  <Mult>  (7) 
1

$$$$
mol_447 234
     RDKit          3D

 21 20  0  0  0  0  0  0  0  0999 V2000
   -2.5096    0.7638    0.1044 C   0  0  0  0  0  0  0  0  0  0  0  0
   -1.1105    0.7932    0.7107 C   0  0  0  0  0  0  0  0  0  0  0  0
   -0.0223    0.0771   -0.1234 C   0  0  0  0  0  0  0  0  0  0  0  0
   -0.3542   -1.4061   -0.3221 C   0  0  0  0  0  0  0  0  0  0  0  0
    0.0247    0.7101   -1.4047 O   0  0  0  0  0  0  0  0  0  0  0  0
    1.3410    0.2738    0.5812 C   0  0  0  0  0  0  0  0  0  0  0  0
    2.5452   -0.3191   -0.1421 C   0  0  0  0  0  0  0  0  0  0  0  0
   -2.5159    1.1688   -0.9119 H   0  0  0  0  0  0  0  0  0  0  0  0
   -3.1897    1.3715    0.7106 H   0  0  0  0  0  0  0  0  0  0  0  0
   -2.9150   -0.2516    0.0784 H   0  0  0  0  0  0  0  0  0  0  0  0
   -1.1534    0.3629    1.7188 H   0  0  0  0  0  0  0  0  0  0  0  0
   -0.8332    1.8494    0.8243 H   0  0  0  0  0  0  0  0  0  0  0  0
    0.4007   -1.9076   -0.9366 H   0  0  0  0  0  0  0  0  0  0  0  0
   -0.4283   -1.9319    0.6351 H   0  0  0  0  0  0  0  0  0  0  0  0
   -1.2954   -1.5348   -0.8668 H   0  0  0  0  0  0  0  0  0  0  0  0
    0.5936    0.1797   -1.9875 H   0  0  0  0  0  0  0  0  0  0  0  0
    1.5316    1.3495    0.6907 H   0  0  0  0  0  0  0  0  0  0  0  0
    1.2989   -0.1484    1.5929 H   0  0  0  0  0  0  0  0  0  0  0  0
    3.4619   -0.0768    0.4061 H   0  0  0  0  0  0  0  0  0  0  0  0
    2.4817   -1.4089   -0.2051 H   0  0  0  0  0  0  0  0  0  0  0  0
    2.6483    0.0855   -1.1530 H   0  0  0  0  0  0  0  0  0  0  0  0
  1  2  1  0
  2  3  1  0
  3  4  1  0
  3  5  1  0
  3  6  1  0
  6  7  1  0
  1  8  1  0
  1  9  1  0
  1 10  1  0
  2 11  1  0
  2 12  1  0
  4 13  1  0
  4 14  1  0
  4 15  1  0
  5 16  1  0
  6 17  1  0
  6 18  1  0
  7 19  1  0
  7 20  1  0
  7 21  1  0
M  END
>  <Energy>  (8) 
10.544384323766636

>  <Real charge>  (8) 
0

>  <Mult>  (8) 
1

$$$$
mol_447 142
     RDKit          3D

 21 20  0  0  0  0  0  0  0  0999 V2000
    2.3409   -0.3306   -0.4951 C   0  0  0  0  0  0  0  0  0  0  0  0
    0.8465   -0.5940   -0.6505 C   0  0  0  0  0  0  0  0  0  0  0  0
   -0.0758    0.5214   -0.1111 C   0  0  0  0  0  0  0  0  0  0  0  0
    0.1105    0.7506    1.3932 C   0  0  0  0  0  0  0  0  0  0  0  0
    0.2391    1.7469   -0.7871 O   0  0  0  0  0  0  0  0  0  0  0  0
   -1.5556    0.2330   -0.4513 C   0  0  0  0  0  0  0  0  0  0  0  0
   -2.1513   -1.0170    0.1801 C   0  0  0  0  0  0  0  0  0  0  0  0
    2.9099   -1.1643   -0.9200 H   0  0  0  0  0  0  0  0  0  0  0  0
    2.6264   -0.2400    0.5567 H   0  0  0  0  0  0  0  0  0  0  0  0
    2.6471    0.5784   -1.0208 H   0  0  0  0  0  0  0  0  0  0  0  0
    0.6512   -0.7310   -1.7219 H   0  0  0  0  0  0  0  0  0  0  0  0
    0.6174   -1.5453   -0.1570 H   0  0  0  0  0  0  0  0  0  0  0  0
   -0.6094    1.4897    1.7634 H   0  0  0  0  0  0  0  0  0  0  0  0
   -0.0150   -0.1728    1.9665 H   0  0  0  0  0  0  0  0  0  0  0  0
    1.1012    1.1609    1.6170 H   0  0  0  0  0  0  0  0  0  0  0  0
    1.1032    2.0595   -0.4707 H   0  0  0  0  0  0  0  0  0  0  0  0
   -1.6675    0.1661   -1.5419 H   0  0  0  0  0  0  0  0  0  0  0  0
   -2.1655    1.0985   -0.1591 H   0  0  0  0  0  0  0  0  0  0  0  0
   -3.2017   -1.1155   -0.1136 H   0  0  0  0  0  0  0  0  0  0  0  0
   -1.6334   -1.9221   -0.1489 H   0  0  0  0  0  0  0  0  0  0  0  0
   -2.1182   -0.9723    1.2722 H   0  0  0  0  0  0  0  0  0  0  0  0
  1  2  1  0
  2  3  1  0
  3  4  1  0
  3  5  1  0
  3  6  1  0
  6  7  1  0
  1  8  1  0
  1  9  1  0
  1 10  1  0
  2 11  1  0
  2 12  1  0
  4 13  1  0
  4 14  1  0
  4 15  1  0
  5 16  1  0
  6 17  1  0
  6 18  1  0
  7 19  1  0
  7 20  1  0
  7 21  1  0
M  END
>  <Energy>  (9) 
10.646357130959535

>  <Real charge>  (9) 
0

>  <Mult>  (9) 
1

$$$$
