mol_489 99
     RDKit          3D

 38 41  0  0  0  0  0  0  0  0999 V2000
    0.9327    0.6015   -3.1610 O   0  0  0  0  0  0  0  0  0  0  0  0
    1.4340    0.4845   -2.0469 C   0  0  0  0  0  0  0  0  0  0  0  0
    0.6314    0.0463   -0.8675 C   0  0  0  0  0  0  0  0  0  0  0  0
   -0.8428   -0.2090   -1.1796 C   0  0  0  0  0  0  0  0  0  0  0  0
   -1.0472   -1.7273   -1.3645 C   0  0  0  0  0  0  0  0  0  0  0  0
   -2.5254   -2.0766   -1.4627 C   0  0  0  0  0  0  0  0  0  0  0  0
   -3.2306   -1.7141   -0.1610 C   0  0  0  0  0  0  0  0  0  0  0  0
   -2.9543   -0.2951    0.2707 C   0  0  0  0  0  0  0  0  0  0  0  0
   -3.8302    0.3104    1.1854 C   0  0  0  0  0  0  0  0  0  0  0  0
   -3.6268    1.6237    1.6040 C   0  0  0  0  0  0  0  0  0  0  0  0
   -2.5488    2.3490    1.1098 C   0  0  0  0  0  0  0  0  0  0  0  0
   -1.6630    1.7554    0.2111 C   0  0  0  0  0  0  0  0  0  0  0  0
   -1.8316    0.4185   -0.1952 C   0  0  0  0  0  0  0  0  0  0  0  0
    1.2385   -0.1213    0.3256 C   0  0  0  0  0  0  0  0  0  0  0  0
    0.6102   -0.5551    1.4750 O   0  0  0  0  0  0  0  0  0  0  0  0
    2.6697    0.1408    0.4875 C   0  0  0  0  0  0  0  0  0  0  0  0
    3.3488   -0.0213    1.7020 C   0  0  0  0  0  0  0  0  0  0  0  0
    4.7177    0.2530    1.7972 C   0  0  0  0  0  0  0  0  0  0  0  0
    5.4237    0.6938    0.6783 C   0  0  0  0  0  0  0  0  0  0  0  0
    4.7614    0.8593   -0.5351 C   0  0  0  0  0  0  0  0  0  0  0  0
    3.3965    0.5802   -0.6107 C   0  0  0  0  0  0  0  0  0  0  0  0
    2.7791    0.7582   -1.8560 O   0  0  0  0  0  0  0  0  0  0  0  0
   -1.1143    0.2623   -2.1342 H   0  0  0  0  0  0  0  0  0  0  0  0
   -0.5301   -2.0625   -2.2725 H   0  0  0  0  0  0  0  0  0  0  0  0
   -0.6074   -2.2884   -0.5290 H   0  0  0  0  0  0  0  0  0  0  0  0
   -2.6464   -3.1476   -1.6606 H   0  0  0  0  0  0  0  0  0  0  0  0
   -2.9797   -1.5389   -2.3044 H   0  0  0  0  0  0  0  0  0  0  0  0
   -4.3091   -1.8609   -0.2951 H   0  0  0  0  0  0  0  0  0  0  0  0
   -2.9005   -2.3877    0.6395 H   0  0  0  0  0  0  0  0  0  0  0  0
   -4.6882   -0.2389    1.5684 H   0  0  0  0  0  0  0  0  0  0  0  0
   -4.3174    2.0846    2.3055 H   0  0  0  0  0  0  0  0  0  0  0  0
   -2.3976    3.3797    1.4209 H   0  0  0  0  0  0  0  0  0  0  0  0
   -0.8344    2.3504   -0.1690 H   0  0  0  0  0  0  0  0  0  0  0  0
   -0.3530   -0.5736    1.3496 H   0  0  0  0  0  0  0  0  0  0  0  0
    2.8172   -0.3626    2.5879 H   0  0  0  0  0  0  0  0  0  0  0  0
    5.2301    0.1220    2.7473 H   0  0  0  0  0  0  0  0  0  0  0  0
    6.4869    0.9066    0.7532 H   0  0  0  0  0  0  0  0  0  0  0  0
    5.3011    1.2008   -1.4136 H   0  0  0  0  0  0  0  0  0  0  0  0
  1  2  2  0
  2  3  1  0
  3  4  1  0
  4  5  1  0
  5  6  1  0
  6  7  1  0
  7  8  1  0
  8  9  2  0
  9 10  1  0
 10 11  2  0
 11 12  1  0
 12 13  2  0
  3 14  2  0
 14 15  1  0
 14 16  1  0
 16 17  2  0
 17 18  1  0
 18 19  2  0
 19 20  1  0
 20 21  2  0
 21 22  1  0
 21 16  1  0
 22  2  1  0
 13  4  1  0
 13  8  1  0
  4 23  1  0
  5 24  1  0
  5 25  1  0
  6 26  1  0
  6 27  1  0
  7 28  1  0
  7 29  1  0
  9 30  1  0
 10 31  1  0
 11 32  1  0
 12 33  1  0
 15 34  1  0
 17 35  1  0
 18 36  1  0
 19 37  1  0
 20 38  1  0
M  END
>  <Energy>  (1) 
54.71429371521142

>  <Real charge>  (1) 
0

>  <Mult>  (1) 
1

$$$$
mol_489 93
     RDKit          3D

 38 41  0  0  0  0  0  0  0  0999 V2000
    0.3529    0.5925   -3.3743 O   0  0  0  0  0  0  0  0  0  0  0  0
    0.9669    0.1584   -2.4033 C   0  0  0  0  0  0  0  0  0  0  0  0
    0.3340    0.0785   -1.0466 C   0  0  0  0  0  0  0  0  0  0  0  0
   -1.1039    0.6149   -1.0503 C   0  0  0  0  0  0  0  0  0  0  0  0
   -2.0959   -0.4714   -1.5189 C   0  0  0  0  0  0  0  0  0  0  0  0
   -2.5474   -1.3615   -0.3681 C   0  0  0  0  0  0  0  0  0  0  0  0
   -3.2876   -0.5347    0.6781 C   0  0  0  0  0  0  0  0  0  0  0  0
   -2.5629    0.7337    1.0562 C   0  0  0  0  0  0  0  0  0  0  0  0
   -2.9344    1.3942    2.2372 C   0  0  0  0  0  0  0  0  0  0  0  0
   -2.3143    2.5848    2.6131 C   0  0  0  0  0  0  0  0  0  0  0  0
   -1.3240    3.1375    1.8078 C   0  0  0  0  0  0  0  0  0  0  0  0
   -0.9519    2.4996    0.6257 C   0  0  0  0  0  0  0  0  0  0  0  0
   -1.5617    1.2933    0.2362 C   0  0  0  0  0  0  0  0  0  0  0  0
    1.0482   -0.4353   -0.0218 C   0  0  0  0  0  0  0  0  0  0  0  0
    0.5987   -0.5938    1.2709 O   0  0  0  0  0  0  0  0  0  0  0  0
    2.4207   -0.9132   -0.2192 C   0  0  0  0  0  0  0  0  0  0  0  0
    3.1971   -1.4663    0.8087 C   0  0  0  0  0  0  0  0  0  0  0  0
    4.5047   -1.9012    0.5649 C   0  0  0  0  0  0  0  0  0  0  0  0
    5.0537   -1.7877   -0.7113 C   0  0  0  0  0  0  0  0  0  0  0  0
    4.2949   -1.2402   -1.7419 C   0  0  0  0  0  0  0  0  0  0  0  0
    2.9926   -0.8129   -1.4788 C   0  0  0  0  0  0  0  0  0  0  0  0
    2.2738   -0.2739   -2.5510 O   0  0  0  0  0  0  0  0  0  0  0  0
   -1.1651    1.4189   -1.7986 H   0  0  0  0  0  0  0  0  0  0  0  0
   -2.9798    0.0141   -1.9552 H   0  0  0  0  0  0  0  0  0  0  0  0
   -1.6624   -1.0879   -2.3154 H   0  0  0  0  0  0  0  0  0  0  0  0
   -1.6838   -1.8616    0.0852 H   0  0  0  0  0  0  0  0  0  0  0  0
   -3.2090   -2.1510   -0.7425 H   0  0  0  0  0  0  0  0  0  0  0  0
   -3.4438   -1.1552    1.5687 H   0  0  0  0  0  0  0  0  0  0  0  0
   -4.2761   -0.2579    0.2906 H   0  0  0  0  0  0  0  0  0  0  0  0
   -3.7172    0.9831    2.8720 H   0  0  0  0  0  0  0  0  0  0  0  0
   -2.6106    3.0857    3.5313 H   0  0  0  0  0  0  0  0  0  0  0  0
   -0.8441    4.0691    2.0971 H   0  0  0  0  0  0  0  0  0  0  0  0
   -0.1785    2.9502    0.0056 H   0  0  0  0  0  0  0  0  0  0  0  0
   -0.2467   -0.1381    1.4015 H   0  0  0  0  0  0  0  0  0  0  0  0
    2.7904   -1.5641    1.8132 H   0  0  0  0  0  0  0  0  0  0  0  0
    5.0920   -2.3278    1.3745 H   0  0  0  0  0  0  0  0  0  0  0  0
    6.0693   -2.1253   -0.9008 H   0  0  0  0  0  0  0  0  0  0  0  0
    4.7111   -1.1472   -2.7408 H   0  0  0  0  0  0  0  0  0  0  0  0
  1  2  2  0
  2  3  1  0
  3  4  1  0
  4  5  1  0
  5  6  1  0
  6  7  1  0
  7  8  1  0
  8  9  2  0
  9 10  1  0
 10 11  2  0
 11 12  1  0
 12 13  2  0
  3 14  2  0
 14 15  1  0
 14 16  1  0
 16 17  2  0
 17 18  1  0
 18 19  2  0
 19 20  1  0
 20 21  2  0
 21 22  1  0
 21 16  1  0
 22  2  1  0
 13  4  1  0
 13  8  1  0
  4 23  1  0
  5 24  1  0
  5 25  1  0
  6 26  1  0
  6 27  1  0
  7 28  1  0
  7 29  1  0
  9 30  1  0
 10 31  1  0
 11 32  1  0
 12 33  1  0
 15 34  1  0
 17 35  1  0
 18 36  1  0
 19 37  1  0
 20 38  1  0
M  END
>  <Energy>  (2) 
55.29187955106774

>  <Real charge>  (2) 
0

>  <Mult>  (2) 
1

$$$$
