mol_692 117
     RDKit          3D

 26 26  0  0  0  0  0  0  0  0999 V2000
    1.0962    0.4320   -2.0422 O   0  0  0  0  0  0  0  0  0  0  0  0
    1.1553   -0.0302   -0.9055 C   0  0  0  0  0  0  0  0  0  0  0  0
    2.2537   -0.7468   -0.5177 N   0  0  0  0  0  0  0  0  0  0  0  0
    2.6915   -0.8061    0.7677 C   0  0  0  0  0  0  0  0  0  0  0  0
    3.8676   -1.0288    1.0342 O   0  0  0  0  0  0  0  0  0  0  0  0
    1.7848   -0.5217    1.7402 N   0  0  0  0  0  0  0  0  0  0  0  0
    0.6219    0.1678    1.5307 C   0  0  0  0  0  0  0  0  0  0  0  0
    0.0779    0.7498    2.4662 O   0  0  0  0  0  0  0  0  0  0  0  0
    0.0411    0.0886    0.1250 C   0  0  0  0  0  0  0  0  0  0  0  0
   -0.8686    1.3096   -0.1619 C   0  0  0  0  0  0  0  0  0  0  0  0
   -0.1632    2.6627   -0.0784 C   0  0  0  0  0  0  0  0  0  0  0  0
   -0.7823   -1.2344    0.1001 C   0  0  0  0  0  0  0  0  0  0  0  0
   -1.5595   -1.4938   -1.1649 C   0  0  0  0  0  0  0  0  0  0  0  0
   -2.8918   -1.6205   -1.2096 C   0  0  0  0  0  0  0  0  0  0  0  0
    2.9888   -0.8077   -1.2103 H   0  0  0  0  0  0  0  0  0  0  0  0
    2.1698   -0.4472    2.6728 H   0  0  0  0  0  0  0  0  0  0  0  0
   -1.7097    1.3192    0.5433 H   0  0  0  0  0  0  0  0  0  0  0  0
   -1.3046    1.2310   -1.1654 H   0  0  0  0  0  0  0  0  0  0  0  0
    0.2357    2.8545    0.9214 H   0  0  0  0  0  0  0  0  0  0  0  0
   -0.8734    3.4640   -0.3081 H   0  0  0  0  0  0  0  0  0  0  0  0
    0.6598    2.7359   -0.7949 H   0  0  0  0  0  0  0  0  0  0  0  0
   -0.1181   -2.0968    0.2501 H   0  0  0  0  0  0  0  0  0  0  0  0
   -1.4687   -1.2447    0.9588 H   0  0  0  0  0  0  0  0  0  0  0  0
   -0.9966   -1.5898   -2.0927 H   0  0  0  0  0  0  0  0  0  0  0  0
   -3.5085   -1.5374   -0.3197 H   0  0  0  0  0  0  0  0  0  0  0  0
   -3.3993   -1.8091   -2.1514 H   0  0  0  0  0  0  0  0  0  0  0  0
  1  2  2  0
  2  3  1  0
  3  4  1  0
  4  5  2  0
  4  6  1  0
  6  7  1  0
  7  8  2  0
  7  9  1  0
  9 10  1  0
 10 11  1  0
  9 12  1  0
 12 13  1  0
 13 14  2  3
  9  2  1  0
  3 15  1  0
  6 16  1  0
 10 17  1  0
 10 18  1  0
 11 19  1  0
 11 20  1  0
 11 21  1  0
 12 22  1  0
 12 23  1  0
 13 24  1  0
 14 25  1  0
 14 26  1  0
M  END
>  <Energy>  (1) 
-120.77440962898392

>  <Real charge>  (1) 
0

>  <Mult>  (1) 
1

$$$$
mol_692 230
     RDKit          3D

 26 26  0  0  0  0  0  0  0  0999 V2000
   -0.7830   -1.0222    2.2092 O   0  0  0  0  0  0  0  0  0  0  0  0
   -0.5657   -0.1687    1.3507 C   0  0  0  0  0  0  0  0  0  0  0  0
   -0.6815    1.1560    1.6640 N   0  0  0  0  0  0  0  0  0  0  0  0
   -0.7630    2.1758    0.7698 C   0  0  0  0  0  0  0  0  0  0  0  0
   -1.1411    3.2931    1.1067 O   0  0  0  0  0  0  0  0  0  0  0  0
   -0.4717    1.8843   -0.5243 N   0  0  0  0  0  0  0  0  0  0  0  0
   -0.3498    0.6273   -1.0448 C   0  0  0  0  0  0  0  0  0  0  0  0
   -0.3982    0.4607   -2.2626 O   0  0  0  0  0  0  0  0  0  0  0  0
   -0.1083   -0.5013   -0.0576 C   0  0  0  0  0  0  0  0  0  0  0  0
   -0.8238   -1.7893   -0.5499 C   0  0  0  0  0  0  0  0  0  0  0  0
   -2.3435   -1.6688   -0.6428 C   0  0  0  0  0  0  0  0  0  0  0  0
    1.4196   -0.7864   -0.0232 C   0  0  0  0  0  0  0  0  0  0  0  0
    2.2959    0.3346    0.4781 C   0  0  0  0  0  0  0  0  0  0  0  0
    3.0763    1.0821   -0.3123 C   0  0  0  0  0  0  0  0  0  0  0  0
   -0.9949    1.3673    2.6014 H   0  0  0  0  0  0  0  0  0  0  0  0
   -0.6326    2.6277   -1.1896 H   0  0  0  0  0  0  0  0  0  0  0  0
   -0.4442   -2.0737   -1.5400 H   0  0  0  0  0  0  0  0  0  0  0  0
   -0.5897   -2.6268    0.1202 H   0  0  0  0  0  0  0  0  0  0  0  0
   -2.7914   -1.4476    0.3304 H   0  0  0  0  0  0  0  0  0  0  0  0
   -2.7692   -2.6137   -0.9963 H   0  0  0  0  0  0  0  0  0  0  0  0
   -2.6447   -0.8866   -1.3457 H   0  0  0  0  0  0  0  0  0  0  0  0
    1.6165   -1.6560    0.6189 H   0  0  0  0  0  0  0  0  0  0  0  0
    1.7540   -1.0784   -1.0287 H   0  0  0  0  0  0  0  0  0  0  0  0
    2.3135    0.5140    1.5523 H   0  0  0  0  0  0  0  0  0  0  0  0
    3.1150    0.9333   -1.3881 H   0  0  0  0  0  0  0  0  0  0  0  0
    3.7055    1.8635    0.1045 H   0  0  0  0  0  0  0  0  0  0  0  0
  1  2  2  0
  2  3  1  0
  3  4  1  0
  4  5  2  0
  4  6  1  0
  6  7  1  0
  7  8  2  0
  7  9  1  0
  9 10  1  0
 10 11  1  0
  9 12  1  0
 12 13  1  0
 13 14  2  3
  9  2  1  0
  3 15  1  0
  6 16  1  0
 10 17  1  0
 10 18  1  0
 11 19  1  0
 11 20  1  0
 11 21  1  0
 12 22  1  0
 12 23  1  0
 13 24  1  0
 14 25  1  0
 14 26  1  0
M  END
>  <Energy>  (2) 
-120.69491934736935

>  <Real charge>  (2) 
0

>  <Mult>  (2) 
1

$$$$
mol_692 290
     RDKit          3D

 26 26  0  0  0  0  0  0  0  0999 V2000
   -0.6992    0.2611    2.0650 O   0  0  0  0  0  0  0  0  0  0  0  0
   -0.3052    0.6849    0.9815 C   0  0  0  0  0  0  0  0  0  0  0  0
    0.0747    1.9926    0.8544 N   0  0  0  0  0  0  0  0  0  0  0  0
   -0.1329    2.7050   -0.2843 C   0  0  0  0  0  0  0  0  0  0  0  0
   -0.2735    3.9231   -0.2615 O   0  0  0  0  0  0  0  0  0  0  0  0
   -0.2654    1.9971   -1.4387 N   0  0  0  0  0  0  0  0  0  0  0  0
   -0.5455    0.6587   -1.5050 C   0  0  0  0  0  0  0  0  0  0  0  0
   -1.0053    0.1775   -2.5378 O   0  0  0  0  0  0  0  0  0  0  0  0
   -0.1751   -0.1624   -0.2775 C   0  0  0  0  0  0  0  0  0  0  0  0
   -1.0405   -1.4445   -0.1898 C   0  0  0  0  0  0  0  0  0  0  0  0
   -2.5462   -1.1954   -0.1071 C   0  0  0  0  0  0  0  0  0  0  0  0
    1.3287   -0.5213   -0.4725 C   0  0  0  0  0  0  0  0  0  0  0  0
    1.9572   -1.3248    0.6354 C   0  0  0  0  0  0  0  0  0  0  0  0
    2.9364   -0.8695    1.4272 C   0  0  0  0  0  0  0  0  0  0  0  0
   -0.0178    2.5401    1.7003 H   0  0  0  0  0  0  0  0  0  0  0  0
   -0.5327    2.5400   -2.2492 H   0  0  0  0  0  0  0  0  0  0  0  0
   -0.7585   -2.0324    0.6921 H   0  0  0  0  0  0  0  0  0  0  0  0
   -0.8490   -2.0814   -1.0630 H   0  0  0  0  0  0  0  0  0  0  0  0
   -3.0744   -2.1516   -0.0282 H   0  0  0  0  0  0  0  0  0  0  0  0
   -2.8123   -0.5984    0.7695 H   0  0  0  0  0  0  0  0  0  0  0  0
   -2.9251   -0.6845   -0.9964 H   0  0  0  0  0  0  0  0  0  0  0  0
    1.4454   -1.0962   -1.4019 H   0  0  0  0  0  0  0  0  0  0  0  0
    1.9170    0.3941   -0.6284 H   0  0  0  0  0  0  0  0  0  0  0  0
    1.6002   -2.3428    0.7828 H   0  0  0  0  0  0  0  0  0  0  0  0
    3.3545   -1.5003    2.2070 H   0  0  0  0  0  0  0  0  0  0  0  0
    3.3445    0.1311    1.3262 H   0  0  0  0  0  0  0  0  0  0  0  0
  1  2  2  0
  2  3  1  0
  3  4  1  0
  4  5  2  0
  4  6  1  0
  6  7  1  0
  7  8  2  0
  7  9  1  0
  9 10  1  0
 10 11  1  0
  9 12  1  0
 12 13  1  0
 13 14  2  3
  9  2  1  0
  3 15  1  0
  6 16  1  0
 10 17  1  0
 10 18  1  0
 11 19  1  0
 11 20  1  0
 11 21  1  0
 12 22  1  0
 12 23  1  0
 13 24  1  0
 14 25  1  0
 14 26  1  0
M  END
>  <Energy>  (3) 
-120.67545639160626

>  <Real charge>  (3) 
0

>  <Mult>  (3) 
1

$$$$
mol_692 254
     RDKit          3D

 26 26  0  0  0  0  0  0  0  0999 V2000
    0.5926   -0.3419    2.1830 O   0  0  0  0  0  0  0  0  0  0  0  0
    0.0397    0.1978    1.2249 C   0  0  0  0  0  0  0  0  0  0  0  0
   -0.6133    1.3838    1.4012 N   0  0  0  0  0  0  0  0  0  0  0  0
   -1.2019    2.1345    0.4352 C   0  0  0  0  0  0  0  0  0  0  0  0
   -1.6437    3.2539    0.6710 O   0  0  0  0  0  0  0  0  0  0  0  0
   -1.2474    1.6017   -0.8125 N   0  0  0  0  0  0  0  0  0  0  0  0
   -0.5656    0.4962   -1.2319 C   0  0  0  0  0  0  0  0  0  0  0  0
   -0.4607    0.2637   -2.4356 O   0  0  0  0  0  0  0  0  0  0  0  0
   -0.0142   -0.4236   -0.1589 C   0  0  0  0  0  0  0  0  0  0  0  0
   -0.9136   -1.6892   -0.0901 C   0  0  0  0  0  0  0  0  0  0  0  0
   -2.3663   -1.4381    0.3051 C   0  0  0  0  0  0  0  0  0  0  0  0
    1.4194   -0.8637   -0.5567 C   0  0  0  0  0  0  0  0  0  0  0  0
    2.3927    0.2770   -0.7331 C   0  0  0  0  0  0  0  0  0  0  0  0
    3.3440    0.5915    0.1547 C   0  0  0  0  0  0  0  0  0  0  0  0
   -0.5578    1.7968    2.3218 H   0  0  0  0  0  0  0  0  0  0  0  0
   -1.6047    2.2083   -1.5378 H   0  0  0  0  0  0  0  0  0  0  0  0
   -0.9130   -2.1933   -1.0655 H   0  0  0  0  0  0  0  0  0  0  0  0
   -0.4888   -2.4035    0.6276 H   0  0  0  0  0  0  0  0  0  0  0  0
   -2.4426   -0.9854    1.2979 H   0  0  0  0  0  0  0  0  0  0  0  0
   -2.8741   -0.7898   -0.4148 H   0  0  0  0  0  0  0  0  0  0  0  0
   -2.9110   -2.3877    0.3333 H   0  0  0  0  0  0  0  0  0  0  0  0
    1.3959   -1.4215   -1.5026 H   0  0  0  0  0  0  0  0  0  0  0  0
    1.8146   -1.5673    0.1890 H   0  0  0  0  0  0  0  0  0  0  0  0
    2.3250    0.8482   -1.6585 H   0  0  0  0  0  0  0  0  0  0  0  0
    3.4617    0.0417    1.0850 H   0  0  0  0  0  0  0  0  0  0  0  0
    4.0330    1.4100   -0.0319 H   0  0  0  0  0  0  0  0  0  0  0  0
  1  2  2  0
  2  3  1  0
  3  4  1  0
  4  5  2  0
  4  6  1  0
  6  7  1  0
  7  8  2  0
  7  9  1  0
  9 10  1  0
 10 11  1  0
  9 12  1  0
 12 13  1  0
 13 14  2  3
  9  2  1  0
  3 15  1  0
  6 16  1  0
 10 17  1  0
 10 18  1  0
 11 19  1  0
 11 20  1  0
 11 21  1  0
 12 22  1  0
 12 23  1  0
 13 24  1  0
 14 25  1  0
 14 26  1  0
M  END
>  <Energy>  (4) 
-120.13756107242487

>  <Real charge>  (4) 
0

>  <Mult>  (4) 
1

$$$$
mol_692 348
     RDKit          3D

 26 26  0  0  0  0  0  0  0  0999 V2000
   -1.2617    0.6213   -2.1596 O   0  0  0  0  0  0  0  0  0  0  0  0
   -1.3904    0.2825   -0.9867 C   0  0  0  0  0  0  0  0  0  0  0  0
   -2.6121    0.3716   -0.3748 N   0  0  0  0  0  0  0  0  0  0  0  0
   -3.0240   -0.5303    0.5569 C   0  0  0  0  0  0  0  0  0  0  0  0
   -4.2121   -0.7934    0.7102 O   0  0  0  0  0  0  0  0  0  0  0  0
   -2.0551   -1.2045    1.2334 N   0  0  0  0  0  0  0  0  0  0  0  0
   -0.8031   -1.3976    0.7111 C   0  0  0  0  0  0  0  0  0  0  0  0
   -0.2077   -2.4488    0.9259 O   0  0  0  0  0  0  0  0  0  0  0  0
   -0.2523   -0.2249   -0.1020 C   0  0  0  0  0  0  0  0  0  0  0  0
    0.1369    0.9026    0.8972 C   0  0  0  0  0  0  0  0  0  0  0  0
    0.6637    2.1815    0.2541 C   0  0  0  0  0  0  0  0  0  0  0  0
    0.9280   -0.6774   -1.0021 C   0  0  0  0  0  0  0  0  0  0  0  0
    2.2140   -1.0257   -0.2916 C   0  0  0  0  0  0  0  0  0  0  0  0
    3.3823   -0.4046   -0.4980 C   0  0  0  0  0  0  0  0  0  0  0  0
   -3.3579    0.7034   -0.9731 H   0  0  0  0  0  0  0  0  0  0  0  0
   -2.4099   -1.9888    1.7659 H   0  0  0  0  0  0  0  0  0  0  0  0
    0.8880    0.5278    1.6044 H   0  0  0  0  0  0  0  0  0  0  0  0
   -0.7263    1.1797    1.5167 H   0  0  0  0  0  0  0  0  0  0  0  0
    1.5701    2.0047   -0.3295 H   0  0  0  0  0  0  0  0  0  0  0  0
   -0.0847    2.6378   -0.4006 H   0  0  0  0  0  0  0  0  0  0  0  0
    0.9104    2.9121    1.0317 H   0  0  0  0  0  0  0  0  0  0  0  0
    0.6219   -1.5634   -1.5757 H   0  0  0  0  0  0  0  0  0  0  0  0
    1.1388    0.0937   -1.7551 H   0  0  0  0  0  0  0  0  0  0  0  0
    2.1865   -1.8594    0.4090 H   0  0  0  0  0  0  0  0  0  0  0  0
    3.4799    0.4173   -1.2006 H   0  0  0  0  0  0  0  0  0  0  0  0
    4.2768   -0.7171    0.0329 H   0  0  0  0  0  0  0  0  0  0  0  0
  1  2  2  0
  2  3  1  0
  3  4  1  0
  4  5  2  0
  4  6  1  0
  6  7  1  0
  7  8  2  0
  7  9  1  0
  9 10  1  0
 10 11  1  0
  9 12  1  0
 12 13  1  0
 13 14  2  3
  9  2  1  0
  3 15  1  0
  6 16  1  0
 10 17  1  0
 10 18  1  0
 11 19  1  0
 11 20  1  0
 11 21  1  0
 12 22  1  0
 12 23  1  0
 13 24  1  0
 14 25  1  0
 14 26  1  0
M  END
>  <Energy>  (5) 
-120.13067575848606

>  <Real charge>  (5) 
0

>  <Mult>  (5) 
1

$$$$
mol_692 225
     RDKit          3D

 26 26  0  0  0  0  0  0  0  0999 V2000
    0.4041    0.7685    2.4627 O   0  0  0  0  0  0  0  0  0  0  0  0
    0.0151    1.0160    1.3230 C   0  0  0  0  0  0  0  0  0  0  0  0
   -0.3082    2.2994    0.9788 N   0  0  0  0  0  0  0  0  0  0  0  0
   -0.3246    2.7703   -0.2958 C   0  0  0  0  0  0  0  0  0  0  0  0
   -0.2160    3.9679   -0.5371 O   0  0  0  0  0  0  0  0  0  0  0  0
   -0.3870    1.8483   -1.2918 N   0  0  0  0  0  0  0  0  0  0  0  0
   -0.0522    0.5309   -1.1396 C   0  0  0  0  0  0  0  0  0  0  0  0
    0.2937   -0.1262   -2.1191 O   0  0  0  0  0  0  0  0  0  0  0  0
   -0.2273   -0.0465    0.2585 C   0  0  0  0  0  0  0  0  0  0  0  0
   -1.7221   -0.4567    0.4220 C   0  0  0  0  0  0  0  0  0  0  0  0
   -2.1856   -1.6248   -0.4416 C   0  0  0  0  0  0  0  0  0  0  0  0
    0.7154   -1.2543    0.4731 C   0  0  0  0  0  0  0  0  0  0  0  0
    2.1858   -0.9091    0.5089 C   0  0  0  0  0  0  0  0  0  0  0  0
    3.0412   -1.1634   -0.4890 C   0  0  0  0  0  0  0  0  0  0  0  0
   -0.1320    2.9970    1.6895 H   0  0  0  0  0  0  0  0  0  0  0  0
   -0.2561    2.2205   -2.2230 H   0  0  0  0  0  0  0  0  0  0  0  0
   -2.3721    0.4012    0.2030 H   0  0  0  0  0  0  0  0  0  0  0  0
   -1.9155   -0.7157    1.4719 H   0  0  0  0  0  0  0  0  0  0  0  0
   -3.2572   -1.7934   -0.2908 H   0  0  0  0  0  0  0  0  0  0  0  0
   -2.0286   -1.4288   -1.5059 H   0  0  0  0  0  0  0  0  0  0  0  0
   -1.6705   -2.5522   -0.1755 H   0  0  0  0  0  0  0  0  0  0  0  0
    0.5523   -2.0063   -0.3096 H   0  0  0  0  0  0  0  0  0  0  0  0
    0.4736   -1.7525    1.4214 H   0  0  0  0  0  0  0  0  0  0  0  0
    2.5663   -0.4556    1.4237 H   0  0  0  0  0  0  0  0  0  0  0  0
    4.0934   -0.9107   -0.3999 H   0  0  0  0  0  0  0  0  0  0  0  0
    2.7142   -1.6239   -1.4175 H   0  0  0  0  0  0  0  0  0  0  0  0
  1  2  2  0
  2  3  1  0
  3  4  1  0
  4  5  2  0
  4  6  1  0
  6  7  1  0
  7  8  2  0
  7  9  1  0
  9 10  1  0
 10 11  1  0
  9 12  1  0
 12 13  1  0
 13 14  2  3
  9  2  1  0
  3 15  1  0
  6 16  1  0
 10 17  1  0
 10 18  1  0
 11 19  1  0
 11 20  1  0
 11 21  1  0
 12 22  1  0
 12 23  1  0
 13 24  1  0
 14 25  1  0
 14 26  1  0
M  END
>  <Energy>  (6) 
-120.01675408606724

>  <Real charge>  (6) 
0

>  <Mult>  (6) 
1

$$$$
mol_692 22
     RDKit          3D

 26 26  0  0  0  0  0  0  0  0999 V2000
   -0.1333   -0.0923    2.3279 O   0  0  0  0  0  0  0  0  0  0  0  0
   -0.7008   -0.0958    1.2378 C   0  0  0  0  0  0  0  0  0  0  0  0
   -2.0423   -0.3470    1.1686 N   0  0  0  0  0  0  0  0  0  0  0  0
   -2.6332   -0.9352    0.0961 C   0  0  0  0  0  0  0  0  0  0  0  0
   -3.6848   -1.5567    0.2060 O   0  0  0  0  0  0  0  0  0  0  0  0
   -1.9669   -0.8694   -1.0867 N   0  0  0  0  0  0  0  0  0  0  0  0
   -0.6484   -0.5337   -1.2344 C   0  0  0  0  0  0  0  0  0  0  0  0
   -0.0736   -0.7760   -2.2940 O   0  0  0  0  0  0  0  0  0  0  0  0
   -0.0158    0.2350   -0.0803 C   0  0  0  0  0  0  0  0  0  0  0  0
   -0.2822    1.7369   -0.3994 C   0  0  0  0  0  0  0  0  0  0  0  0
    0.3544    2.7391    0.5573 C   0  0  0  0  0  0  0  0  0  0  0  0
    1.4995   -0.0677   -0.0109 C   0  0  0  0  0  0  0  0  0  0  0  0
    1.8390   -1.5117    0.2751 C   0  0  0  0  0  0  0  0  0  0  0  0
    2.3431   -2.3580   -0.6314 C   0  0  0  0  0  0  0  0  0  0  0  0
   -2.4825   -0.5635    2.0533 H   0  0  0  0  0  0  0  0  0  0  0  0
   -2.3745   -1.3933   -1.8494 H   0  0  0  0  0  0  0  0  0  0  0  0
    0.0749    1.9633   -1.4133 H   0  0  0  0  0  0  0  0  0  0  0  0
   -1.3636    1.9294   -0.4159 H   0  0  0  0  0  0  0  0  0  0  0  0
    0.0541    3.7554    0.2809 H   0  0  0  0  0  0  0  0  0  0  0  0
    0.0376    2.5704    1.5903 H   0  0  0  0  0  0  0  0  0  0  0  0
    1.4464    2.7007    0.5139 H   0  0  0  0  0  0  0  0  0  0  0  0
    1.9824    0.2457   -0.9464 H   0  0  0  0  0  0  0  0  0  0  0  0
    1.9734    0.5225    0.7832 H   0  0  0  0  0  0  0  0  0  0  0  0
    1.6914   -1.8624    1.2961 H   0  0  0  0  0  0  0  0  0  0  0  0
    2.5181   -2.0541   -1.6601 H   0  0  0  0  0  0  0  0  0  0  0  0
    2.5875   -3.3816   -0.3643 H   0  0  0  0  0  0  0  0  0  0  0  0
  1  2  2  0
  2  3  1  0
  3  4  1  0
  4  5  2  0
  4  6  1  0
  6  7  1  0
  7  8  2  0
  7  9  1  0
  9 10  1  0
 10 11  1  0
  9 12  1  0
 12 13  1  0
 13 14  2  3
  9  2  1  0
  3 15  1  0
  6 16  1  0
 10 17  1  0
 10 18  1  0
 11 19  1  0
 11 20  1  0
 11 21  1  0
 12 22  1  0
 12 23  1  0
 13 24  1  0
 14 25  1  0
 14 26  1  0
M  END
>  <Energy>  (7) 
-119.95664671528354

>  <Real charge>  (7) 
0

>  <Mult>  (7) 
1

$$$$
