mol_352 48
     RDKit          3D

 21 22  0  0  0  0  0  0  0  0999 V2000
   -3.3401   -0.3084   -0.3090 C   0  0  0  0  0  0  0  0  0  0  0  0
   -1.8978    0.0556   -0.1165 C   0  0  0  0  0  0  0  0  0  0  0  0
   -1.5446    1.3057    0.3981 C   0  0  0  0  0  0  0  0  0  0  0  0
   -0.2022    1.6315    0.6063 C   0  0  0  0  0  0  0  0  0  0  0  0
    0.8145    0.7096    0.3142 C   0  0  0  0  0  0  0  0  0  0  0  0
    2.1685    1.0224    0.5181 C   0  0  0  0  0  0  0  0  0  0  0  0
    3.1674    0.0923    0.2262 C   0  0  0  0  0  0  0  0  0  0  0  0
    2.8258   -1.1614   -0.2723 C   0  0  0  0  0  0  0  0  0  0  0  0
    1.4845   -1.4874   -0.4803 C   0  0  0  0  0  0  0  0  0  0  0  0
    0.4671   -0.5626   -0.1929 C   0  0  0  0  0  0  0  0  0  0  0  0
   -0.8881   -0.8753   -0.3969 C   0  0  0  0  0  0  0  0  0  0  0  0
   -3.9410    0.5791   -0.5340 H   0  0  0  0  0  0  0  0  0  0  0  0
   -3.4590   -1.0015   -1.1484 H   0  0  0  0  0  0  0  0  0  0  0  0
   -3.7313   -0.7795    0.5980 H   0  0  0  0  0  0  0  0  0  0  0  0
   -2.3119    2.0374    0.6406 H   0  0  0  0  0  0  0  0  0  0  0  0
    0.0444    2.6138    1.0027 H   0  0  0  0  0  0  0  0  0  0  0  0
    2.4544    1.9966    0.9079 H   0  0  0  0  0  0  0  0  0  0  0  0
    4.2111    0.3477    0.3888 H   0  0  0  0  0  0  0  0  0  0  0  0
    3.6022   -1.8869   -0.4998 H   0  0  0  0  0  0  0  0  0  0  0  0
    1.2372   -2.4719   -0.8707 H   0  0  0  0  0  0  0  0  0  0  0  0
   -1.1613   -1.8566   -0.7803 H   0  0  0  0  0  0  0  0  0  0  0  0
  1  2  1  0
  2  3  2  0
  3  4  1  0
  4  5  2  0
  5  6  1  0
  6  7  2  0
  7  8  1  0
  8  9  2  0
  9 10  1  0
 10 11  2  0
 11  2  1  0
 10  5  1  0
  1 12  1  0
  1 13  1  0
  1 14  1  0
  3 15  1  0
  4 16  1  0
  6 17  1  0
  7 18  1  0
  8 19  1  0
  9 20  1  0
 11 21  1  0
M  END
>  <Energy>  (1) 
33.21870441346439

>  <Real charge>  (1) 
0

>  <Mult>  (1) 
1

$$$$
