mol_1021 114
     RDKit          3D

 12 11  0  0  0  0  0  0  0  0999 V2000
   -2.2540   -0.0845   -0.1802 C   0  0  0  0  0  0  0  0  0  0  0  0
   -1.0422    0.3067    0.4655 O   0  0  0  0  0  0  0  0  0  0  0  0
    0.0762   -0.1260   -0.1681 C   0  0  0  0  0  0  0  0  0  0  0  0
    0.1246   -0.7875   -1.1915 O   0  0  0  0  0  0  0  0  0  0  0  0
    1.2469    0.3461    0.6014 C   0  0  0  0  0  0  0  0  0  0  0  0
    2.4922    0.0610    0.2005 C   0  0  0  0  0  0  0  0  0  0  0  0
   -2.3372   -1.1755   -0.2117 H   0  0  0  0  0  0  0  0  0  0  0  0
   -3.0911    0.3094    0.4027 H   0  0  0  0  0  0  0  0  0  0  0  0
   -2.3053    0.3380   -1.1887 H   0  0  0  0  0  0  0  0  0  0  0  0
    1.0577    0.9272    1.4956 H   0  0  0  0  0  0  0  0  0  0  0  0
    3.3510    0.4074    0.7653 H   0  0  0  0  0  0  0  0  0  0  0  0
    2.6811   -0.5224   -0.6970 H   0  0  0  0  0  0  0  0  0  0  0  0
  1  2  1  0
  2  3  1  0
  3  4  2  0
  3  5  1  0
  5  6  2  3
  1  7  1  0
  1  8  1  0
  1  9  1  0
  5 10  1  0
  6 11  1  0
  6 12  1  0
M  END
>  <Energy>  (1) 
-0.3170473187605829

>  <Real charge>  (1) 
0

>  <Mult>  (1) 
1

$$$$
mol_1021 86
     RDKit          3D

 12 11  0  0  0  0  0  0  0  0999 V2000
    2.0427   -0.3775    0.1426 C   0  0  0  0  0  0  0  0  0  0  0  0
    0.6276   -0.4608   -0.0253 O   0  0  0  0  0  0  0  0  0  0  0  0
   -0.0145    0.7202    0.1427 C   0  0  0  0  0  0  0  0  0  0  0  0
    0.5052    1.7927    0.4131 O   0  0  0  0  0  0  0  0  0  0  0  0
   -1.4755    0.5812   -0.0412 C   0  0  0  0  0  0  0  0  0  0  0  0
   -2.1117   -0.5599   -0.3378 C   0  0  0  0  0  0  0  0  0  0  0  0
    2.2904   -0.0523    1.1580 H   0  0  0  0  0  0  0  0  0  0  0  0
    2.4617   -1.3756   -0.0125 H   0  0  0  0  0  0  0  0  0  0  0  0
    2.4781    0.2997   -0.5989 H   0  0  0  0  0  0  0  0  0  0  0  0
   -2.0292    1.5055    0.0848 H   0  0  0  0  0  0  0  0  0  0  0  0
   -1.5845   -1.4997   -0.4697 H   0  0  0  0  0  0  0  0  0  0  0  0
   -3.1904   -0.5735   -0.4558 H   0  0  0  0  0  0  0  0  0  0  0  0
  1  2  1  0
  2  3  1  0
  3  4  2  0
  3  5  1  0
  5  6  2  3
  1  7  1  0
  1  8  1  0
  1  9  1  0
  5 10  1  0
  6 11  1  0
  6 12  1  0
M  END
>  <Energy>  (2) 
0.2451748888936649

>  <Real charge>  (2) 
0

>  <Mult>  (2) 
1

$$$$
