mol_854 48
     RDKit          3D

 13 13  0  0  0  0  0  0  0  0999 V2000
   -2.5186   -0.2996   -0.0392 O   0  0  0  0  0  0  0  0  0  0  0  0
   -1.1507   -0.1832   -0.0222 C   0  0  0  0  0  0  0  0  0  0  0  0
   -0.3691   -1.3360   -0.1253 C   0  0  0  0  0  0  0  0  0  0  0  0
   -1.0822   -2.8996   -0.2732 Cl  0  0  0  0  0  0  0  0  0  0  0  0
    1.0208   -1.2392   -0.1100 C   0  0  0  0  0  0  0  0  0  0  0  0
    1.6338    0.0119    0.0086 C   0  0  0  0  0  0  0  0  0  0  0  0
    3.3642    0.0402    0.0191 Cl  0  0  0  0  0  0  0  0  0  0  0  0
    0.8607    1.1793    0.1130 C   0  0  0  0  0  0  0  0  0  0  0  0
    1.6264    2.7303    0.2600 Cl  0  0  0  0  0  0  0  0  0  0  0  0
   -0.5395    1.0740    0.0969 C   0  0  0  0  0  0  0  0  0  0  0  0
   -1.5667    2.4685    0.2212 Cl  0  0  0  0  0  0  0  0  0  0  0  0
   -2.9064    0.5924    0.0415 H   0  0  0  0  0  0  0  0  0  0  0  0
    1.6273   -2.1390   -0.1904 H   0  0  0  0  0  0  0  0  0  0  0  0
  1  2  1  0
  2  3  2  0
  3  4  1  0
  3  5  1  0
  5  6  2  0
  6  7  1  0
  6  8  1  0
  8  9  1  0
  8 10  2  0
 10 11  1  0
 10  2  1  0
  1 12  1  0
  5 13  1  0
M  END
>  <Energy>  (1) 
31.413769609711686

>  <Real charge>  (1) 
0

>  <Mult>  (1) 
1

$$$$
