mol_271 328
     RDKit          3D

 35 35  0  0  0  0  0  0  0  0999 V2000
    5.5207   -0.8276    0.1884 C   0  0  0  0  0  0  0  0  0  0  0  0
    4.0572   -1.2245    0.1042 C   0  0  0  0  0  0  0  0  0  0  0  0
    3.0093    0.2558    0.1697 S   0  0  0  0  0  0  0  0  0  0  0  0
    1.4223   -0.4994    0.0473 C   0  0  0  0  0  0  0  0  0  0  0  0
    1.3335   -1.7207   -0.0249 O   0  0  0  0  0  0  0  0  0  0  0  0
    0.3111    0.3549    0.0305 N   0  0  0  0  0  0  0  0  0  0  0  0
    0.3803    1.8027    0.2865 C   0  0  0  0  0  0  0  0  0  0  0  0
    0.6205    2.6136   -0.9793 C   0  0  0  0  0  0  0  0  0  0  0  0
   -1.0183   -0.2890   -0.0379 C   0  0  0  0  0  0  0  0  0  0  0  0
   -1.5855   -0.5279    1.3725 C   0  0  0  0  0  0  0  0  0  0  0  0
   -2.9352   -1.2408    1.3246 C   0  0  0  0  0  0  0  0  0  0  0  0
   -3.9324   -0.5068    0.4333 C   0  0  0  0  0  0  0  0  0  0  0  0
   -3.3740   -0.2810   -0.9687 C   0  0  0  0  0  0  0  0  0  0  0  0
   -2.0327    0.4497   -0.9272 C   0  0  0  0  0  0  0  0  0  0  0  0
    5.7435   -0.3076    1.1264 H   0  0  0  0  0  0  0  0  0  0  0  0
    6.1514   -1.7220    0.1488 H   0  0  0  0  0  0  0  0  0  0  0  0
    5.8112   -0.1812   -0.6468 H   0  0  0  0  0  0  0  0  0  0  0  0
    3.8089   -1.8872    0.9394 H   0  0  0  0  0  0  0  0  0  0  0  0
    3.8765   -1.7609   -0.8328 H   0  0  0  0  0  0  0  0  0  0  0  0
   -0.5480    2.1297    0.7660 H   0  0  0  0  0  0  0  0  0  0  0  0
    1.1697    2.0131    1.0147 H   0  0  0  0  0  0  0  0  0  0  0  0
   -0.1917    2.4816   -1.6995 H   0  0  0  0  0  0  0  0  0  0  0  0
    0.6839    3.6789   -0.7364 H   0  0  0  0  0  0  0  0  0  0  0  0
    1.5495    2.3244   -1.4786 H   0  0  0  0  0  0  0  0  0  0  0  0
   -0.8824   -1.2779   -0.4960 H   0  0  0  0  0  0  0  0  0  0  0  0
   -1.7020    0.4268    1.9001 H   0  0  0  0  0  0  0  0  0  0  0  0
   -0.8817   -1.1249    1.9653 H   0  0  0  0  0  0  0  0  0  0  0  0
   -3.3416   -1.3277    2.3386 H   0  0  0  0  0  0  0  0  0  0  0  0
   -2.7939   -2.2619    0.9493 H   0  0  0  0  0  0  0  0  0  0  0  0
   -4.8631   -1.0818    0.3708 H   0  0  0  0  0  0  0  0  0  0  0  0
   -4.1836    0.4602    0.8862 H   0  0  0  0  0  0  0  0  0  0  0  0
   -4.0904    0.2987   -1.5616 H   0  0  0  0  0  0  0  0  0  0  0  0
   -3.2494   -1.2469   -1.4734 H   0  0  0  0  0  0  0  0  0  0  0  0
   -1.6375    0.5387   -1.9460 H   0  0  0  0  0  0  0  0  0  0  0  0
   -2.2060    1.4687   -0.5632 H   0  0  0  0  0  0  0  0  0  0  0  0
  1  2  1  0
  2  3  1  0
  3  4  1  0
  4  5  2  0
  4  6  1  0
  6  7  1  0
  7  8  1  0
  6  9  1  0
  9 10  1  0
 10 11  1  0
 11 12  1  0
 12 13  1  0
 13 14  1  0
 14  9  1  0
  1 15  1  0
  1 16  1  0
  1 17  1  0
  2 18  1  0
  2 19  1  0
  7 20  1  0
  7 21  1  0
  8 22  1  0
  8 23  1  0
  8 24  1  0
  9 25  1  0
 10 26  1  0
 10 27  1  0
 11 28  1  0
 11 29  1  0
 12 30  1  0
 12 31  1  0
 13 32  1  0
 13 33  1  0
 14 34  1  0
 14 35  1  0
M  END
>  <Energy>  (1) 
-37.81016010278928

>  <Real charge>  (1) 
0

>  <Mult>  (1) 
1

$$$$
mol_271 13
     RDKit          3D

 35 35  0  0  0  0  0  0  0  0999 V2000
    5.1470    0.4226   -1.4249 C   0  0  0  0  0  0  0  0  0  0  0  0
    3.6451    0.2179   -1.5195 C   0  0  0  0  0  0  0  0  0  0  0  0
    2.9263    0.1286    0.1447 S   0  0  0  0  0  0  0  0  0  0  0  0
    1.2305   -0.1037   -0.2767 C   0  0  0  0  0  0  0  0  0  0  0  0
    0.9040   -0.1524   -1.4569 O   0  0  0  0  0  0  0  0  0  0  0  0
    0.3264   -0.2119    0.7846 N   0  0  0  0  0  0  0  0  0  0  0  0
    0.6982   -0.1647    2.2063 C   0  0  0  0  0  0  0  0  0  0  0  0
    0.6143    1.2445    2.7722 C   0  0  0  0  0  0  0  0  0  0  0  0
   -1.1198   -0.2965    0.4954 C   0  0  0  0  0  0  0  0  0  0  0  0
   -1.6670    0.9423   -0.2351 C   0  0  0  0  0  0  0  0  0  0  0  0
   -3.1757    0.8352   -0.4526 C   0  0  0  0  0  0  0  0  0  0  0  0
   -3.5501   -0.4565   -1.1744 C   0  0  0  0  0  0  0  0  0  0  0  0
   -3.0139   -1.6865   -0.4467 C   0  0  0  0  0  0  0  0  0  0  0  0
   -1.5046   -1.5989   -0.2260 C   0  0  0  0  0  0  0  0  0  0  0  0
    5.6341   -0.4061   -0.8998 H   0  0  0  0  0  0  0  0  0  0  0  0
    5.3944    1.3565   -0.9087 H   0  0  0  0  0  0  0  0  0  0  0  0
    5.5790    0.4763   -2.4298 H   0  0  0  0  0  0  0  0  0  0  0  0
    3.1960    1.0514   -2.0691 H   0  0  0  0  0  0  0  0  0  0  0  0
    3.4355   -0.7105   -2.0602 H   0  0  0  0  0  0  0  0  0  0  0  0
    1.7034   -0.5652    2.3600 H   0  0  0  0  0  0  0  0  0  0  0  0
    0.0303   -0.8340    2.7615 H   0  0  0  0  0  0  0  0  0  0  0  0
    0.9128    1.2485    3.8250 H   0  0  0  0  0  0  0  0  0  0  0  0
    1.2676    1.9335    2.2280 H   0  0  0  0  0  0  0  0  0  0  0  0
   -0.4067    1.6343    2.7086 H   0  0  0  0  0  0  0  0  0  0  0  0
   -1.6311   -0.3239    1.4681 H   0  0  0  0  0  0  0  0  0  0  0  0
   -1.1842    1.0730   -1.2094 H   0  0  0  0  0  0  0  0  0  0  0  0
   -1.4450    1.8464    0.3440 H   0  0  0  0  0  0  0  0  0  0  0  0
   -3.5257    1.6965   -1.0327 H   0  0  0  0  0  0  0  0  0  0  0  0
   -3.6881    0.8740    0.5166 H   0  0  0  0  0  0  0  0  0  0  0  0
   -3.1491   -0.4332   -2.1952 H   0  0  0  0  0  0  0  0  0  0  0  0
   -4.6402   -0.5267   -1.2609 H   0  0  0  0  0  0  0  0  0  0  0  0
   -3.2497   -2.5880   -1.0233 H   0  0  0  0  0  0  0  0  0  0  0  0
   -3.5191   -1.7864    0.5219 H   0  0  0  0  0  0  0  0  0  0  0  0
   -1.0039   -1.6743   -1.1973 H   0  0  0  0  0  0  0  0  0  0  0  0
   -1.1709   -2.4621    0.3626 H   0  0  0  0  0  0  0  0  0  0  0  0
  1  2  1  0
  2  3  1  0
  3  4  1  0
  4  5  2  0
  4  6  1  0
  6  7  1  0
  7  8  1  0
  6  9  1  0
  9 10  1  0
 10 11  1  0
 11 12  1  0
 12 13  1  0
 13 14  1  0
 14  9  1  0
  1 15  1  0
  1 16  1  0
  1 17  1  0
  2 18  1  0
  2 19  1  0
  7 20  1  0
  7 21  1  0
  8 22  1  0
  8 23  1  0
  8 24  1  0
  9 25  1  0
 10 26  1  0
 10 27  1  0
 11 28  1  0
 11 29  1  0
 12 30  1  0
 12 31  1  0
 13 32  1  0
 13 33  1  0
 14 34  1  0
 14 35  1  0
M  END
>  <Energy>  (2) 
-37.74963981470587

>  <Real charge>  (2) 
0

>  <Mult>  (2) 
1

$$$$
mol_271 153
     RDKit          3D

 35 35  0  0  0  0  0  0  0  0999 V2000
    4.8610   -1.6645    0.5559 C   0  0  0  0  0  0  0  0  0  0  0  0
    4.0490   -0.3856    0.4488 C   0  0  0  0  0  0  0  0  0  0  0  0
    2.2815   -0.7819    0.3366 S   0  0  0  0  0  0  0  0  0  0  0  0
    1.6196    0.8448    0.2220 C   0  0  0  0  0  0  0  0  0  0  0  0
    2.3728    1.8132    0.2535 O   0  0  0  0  0  0  0  0  0  0  0  0
    0.2287    0.9653    0.1024 N   0  0  0  0  0  0  0  0  0  0  0  0
   -0.2955    2.3340    0.1505 C   0  0  0  0  0  0  0  0  0  0  0  0
   -0.2647    3.0140   -1.2105 C   0  0  0  0  0  0  0  0  0  0  0  0
   -0.7336   -0.1646    0.1201 C   0  0  0  0  0  0  0  0  0  0  0  0
   -1.9116    0.0042   -0.8573 C   0  0  0  0  0  0  0  0  0  0  0  0
   -2.8561   -1.1960   -0.8030 C   0  0  0  0  0  0  0  0  0  0  0  0
   -3.3526   -1.4539    0.6166 C   0  0  0  0  0  0  0  0  0  0  0  0
   -2.1953   -1.6190    1.5969 C   0  0  0  0  0  0  0  0  0  0  0  0
   -1.2377   -0.4302    1.5493 C   0  0  0  0  0  0  0  0  0  0  0  0
    5.9271   -1.4235    0.6235 H   0  0  0  0  0  0  0  0  0  0  0  0
    4.5943   -2.2370    1.4508 H   0  0  0  0  0  0  0  0  0  0  0  0
    4.7220   -2.3044   -0.3222 H   0  0  0  0  0  0  0  0  0  0  0  0
    4.2301    0.2380    1.3301 H   0  0  0  0  0  0  0  0  0  0  0  0
    4.3576    0.1708   -0.4421 H   0  0  0  0  0  0  0  0  0  0  0  0
   -1.3118    2.3316    0.5558 H   0  0  0  0  0  0  0  0  0  0  0  0
    0.3069    2.9223    0.8534 H   0  0  0  0  0  0  0  0  0  0  0  0
    0.7545    3.0659   -1.6066 H   0  0  0  0  0  0  0  0  0  0  0  0
   -0.6503    4.0351   -1.1311 H   0  0  0  0  0  0  0  0  0  0  0  0
   -0.8762    2.4766   -1.9408 H   0  0  0  0  0  0  0  0  0  0  0  0
   -0.2120   -1.0666   -0.2135 H   0  0  0  0  0  0  0  0  0  0  0  0
   -1.5316    0.1197   -1.8792 H   0  0  0  0  0  0  0  0  0  0  0  0
   -2.4886    0.9073   -0.6295 H   0  0  0  0  0  0  0  0  0  0  0  0
   -2.3378   -2.0872   -1.1775 H   0  0  0  0  0  0  0  0  0  0  0  0
   -3.7108   -1.0217   -1.4663 H   0  0  0  0  0  0  0  0  0  0  0  0
   -3.9781   -2.3535    0.6303 H   0  0  0  0  0  0  0  0  0  0  0  0
   -3.9867   -0.6187    0.9386 H   0  0  0  0  0  0  0  0  0  0  0  0
   -1.6455   -2.5384    1.3605 H   0  0  0  0  0  0  0  0  0  0  0  0
   -2.5875   -1.7350    2.6136 H   0  0  0  0  0  0  0  0  0  0  0  0
   -0.3924   -0.6197    2.2213 H   0  0  0  0  0  0  0  0  0  0  0  0
   -1.7488    0.4584    1.9403 H   0  0  0  0  0  0  0  0  0  0  0  0
  1  2  1  0
  2  3  1  0
  3  4  1  0
  4  5  2  0
  4  6  1  0
  6  7  1  0
  7  8  1  0
  6  9  1  0
  9 10  1  0
 10 11  1  0
 11 12  1  0
 12 13  1  0
 13 14  1  0
 14  9  1  0
  1 15  1  0
  1 16  1  0
  1 17  1  0
  2 18  1  0
  2 19  1  0
  7 20  1  0
  7 21  1  0
  8 22  1  0
  8 23  1  0
  8 24  1  0
  9 25  1  0
 10 26  1  0
 10 27  1  0
 11 28  1  0
 11 29  1  0
 12 30  1  0
 12 31  1  0
 13 32  1  0
 13 33  1  0
 14 34  1  0
 14 35  1  0
M  END
>  <Energy>  (3) 
-37.71160062690865

>  <Real charge>  (3) 
0

>  <Mult>  (3) 
1

$$$$
mol_271 25
     RDKit          3D

 35 35  0  0  0  0  0  0  0  0999 V2000
    4.4952    1.2883    0.4892 C   0  0  0  0  0  0  0  0  0  0  0  0
    3.9387    0.9213    1.8543 C   0  0  0  0  0  0  0  0  0  0  0  0
    2.7645   -0.4588    1.7482 S   0  0  0  0  0  0  0  0  0  0  0  0
    1.3576    0.3641    1.0804 C   0  0  0  0  0  0  0  0  0  0  0  0
    1.3031    1.5894    1.0953 O   0  0  0  0  0  0  0  0  0  0  0  0
    0.3417   -0.4433    0.5503 N   0  0  0  0  0  0  0  0  0  0  0  0
    0.3044   -1.9095    0.6736 C   0  0  0  0  0  0  0  0  0  0  0  0
    1.0258   -2.6140   -0.4669 C   0  0  0  0  0  0  0  0  0  0  0  0
   -0.8536    0.2535    0.0282 C   0  0  0  0  0  0  0  0  0  0  0  0
   -1.4347   -0.3652   -1.2544 C   0  0  0  0  0  0  0  0  0  0  0  0
   -2.6516    0.4159   -1.7485 C   0  0  0  0  0  0  0  0  0  0  0  0
   -3.7174    0.5374   -0.6635 C   0  0  0  0  0  0  0  0  0  0  0  0
   -3.1528    1.1520    0.6137 C   0  0  0  0  0  0  0  0  0  0  0  0
   -1.9308    0.3877    1.1188 C   0  0  0  0  0  0  0  0  0  0  0  0
    3.7142    1.6408   -0.1917 H   0  0  0  0  0  0  0  0  0  0  0  0
    5.0040    0.4378    0.0226 H   0  0  0  0  0  0  0  0  0  0  0  0
    5.2291    2.0945    0.5929 H   0  0  0  0  0  0  0  0  0  0  0  0
    4.7631    0.6009    2.4999 H   0  0  0  0  0  0  0  0  0  0  0  0
    3.4763    1.7882    2.3366 H   0  0  0  0  0  0  0  0  0  0  0  0
    0.7417   -2.2125    1.6300 H   0  0  0  0  0  0  0  0  0  0  0  0
   -0.7376   -2.2425    0.7154 H   0  0  0  0  0  0  0  0  0  0  0  0
    2.0763   -2.3165   -0.5306 H   0  0  0  0  0  0  0  0  0  0  0  0
    0.5640   -2.3889   -1.4322 H   0  0  0  0  0  0  0  0  0  0  0  0
    0.9889   -3.6983   -0.3218 H   0  0  0  0  0  0  0  0  0  0  0  0
   -0.5488    1.2732   -0.2428 H   0  0  0  0  0  0  0  0  0  0  0  0
   -1.7370   -1.4052   -1.0874 H   0  0  0  0  0  0  0  0  0  0  0  0
   -0.6699   -0.3784   -2.0398 H   0  0  0  0  0  0  0  0  0  0  0  0
   -3.0759   -0.0820   -2.6277 H   0  0  0  0  0  0  0  0  0  0  0  0
   -2.3386    1.4173   -2.0686 H   0  0  0  0  0  0  0  0  0  0  0  0
   -4.5485    1.1501   -1.0306 H   0  0  0  0  0  0  0  0  0  0  0  0
   -4.1263   -0.4558   -0.4406 H   0  0  0  0  0  0  0  0  0  0  0  0
   -2.8755    2.1963    0.4238 H   0  0  0  0  0  0  0  0  0  0  0  0
   -3.9260    1.1639    1.3901 H   0  0  0  0  0  0  0  0  0  0  0  0
   -1.5180    0.9033    1.9944 H   0  0  0  0  0  0  0  0  0  0  0  0
   -2.2454   -0.6049    1.4640 H   0  0  0  0  0  0  0  0  0  0  0  0
  1  2  1  0
  2  3  1  0
  3  4  1  0
  4  5  2  0
  4  6  1  0
  6  7  1  0
  7  8  1  0
  6  9  1  0
  9 10  1  0
 10 11  1  0
 11 12  1  0
 12 13  1  0
 13 14  1  0
 14  9  1  0
  1 15  1  0
  1 16  1  0
  1 17  1  0
  2 18  1  0
  2 19  1  0
  7 20  1  0
  7 21  1  0
  8 22  1  0
  8 23  1  0
  8 24  1  0
  9 25  1  0
 10 26  1  0
 10 27  1  0
 11 28  1  0
 11 29  1  0
 12 30  1  0
 12 31  1  0
 13 32  1  0
 13 33  1  0
 14 34  1  0
 14 35  1  0
M  END
>  <Energy>  (4) 
-36.94046273176072

>  <Real charge>  (4) 
0

>  <Mult>  (4) 
1

$$$$
mol_271 308
     RDKit          3D

 35 35  0  0  0  0  0  0  0  0999 V2000
    3.9149    0.6364    1.5870 C   0  0  0  0  0  0  0  0  0  0  0  0
    3.8830    1.2853    0.2137 C   0  0  0  0  0  0  0  0  0  0  0  0
    2.9786    0.2663   -0.9858 S   0  0  0  0  0  0  0  0  0  0  0  0
    1.3188    0.5630   -0.4734 C   0  0  0  0  0  0  0  0  0  0  0  0
    1.0726    1.5192    0.2524 O   0  0  0  0  0  0  0  0  0  0  0  0
    0.3484   -0.3338   -0.9311 N   0  0  0  0  0  0  0  0  0  0  0  0
    0.6195   -1.4801   -1.8110 C   0  0  0  0  0  0  0  0  0  0  0  0
    0.8926   -2.7522   -1.0235 C   0  0  0  0  0  0  0  0  0  0  0  0
   -1.0409   -0.2029   -0.4465 C   0  0  0  0  0  0  0  0  0  0  0  0
   -1.1710   -0.3730    1.0774 C   0  0  0  0  0  0  0  0  0  0  0  0
   -2.6312   -0.2942    1.5205 C   0  0  0  0  0  0  0  0  0  0  0  0
   -3.2974    0.9913    1.0374 C   0  0  0  0  0  0  0  0  0  0  0  0
   -3.1755    1.1571   -0.4751 C   0  0  0  0  0  0  0  0  0  0  0  0
   -1.7203    1.0870   -0.9355 C   0  0  0  0  0  0  0  0  0  0  0  0
    4.5014    1.2543    2.2752 H   0  0  0  0  0  0  0  0  0  0  0  0
    4.3838   -0.3529    1.5514 H   0  0  0  0  0  0  0  0  0  0  0  0
    2.9129    0.5296    2.0144 H   0  0  0  0  0  0  0  0  0  0  0  0
    4.9092    1.3907   -0.1538 H   0  0  0  0  0  0  0  0  0  0  0  0
    3.4590    2.2930    0.2646 H   0  0  0  0  0  0  0  0  0  0  0  0
   -0.2448   -1.6230   -2.4703 H   0  0  0  0  0  0  0  0  0  0  0  0
    1.4605   -1.2699   -2.4767 H   0  0  0  0  0  0  0  0  0  0  0  0
    1.1078   -3.5809   -1.7050 H   0  0  0  0  0  0  0  0  0  0  0  0
    1.7473   -2.6307   -0.3509 H   0  0  0  0  0  0  0  0  0  0  0  0
    0.0271   -3.0314   -0.4141 H   0  0  0  0  0  0  0  0  0  0  0  0
   -1.6062   -1.0335   -0.8925 H   0  0  0  0  0  0  0  0  0  0  0  0
   -0.6039    0.3966    1.6118 H   0  0  0  0  0  0  0  0  0  0  0  0
   -0.7482   -1.3371    1.3835 H   0  0  0  0  0  0  0  0  0  0  0  0
   -3.1791   -1.1597    1.1282 H   0  0  0  0  0  0  0  0  0  0  0  0
   -2.6874   -0.3502    2.6135 H   0  0  0  0  0  0  0  0  0  0  0  0
   -2.8353    1.8516    1.5370 H   0  0  0  0  0  0  0  0  0  0  0  0
   -4.3555    0.9866    1.3225 H   0  0  0  0  0  0  0  0  0  0  0  0
   -3.7549    0.3719   -0.9762 H   0  0  0  0  0  0  0  0  0  0  0  0
   -3.6111    2.1162   -0.7772 H   0  0  0  0  0  0  0  0  0  0  0  0
   -1.1937    1.9741   -0.5671 H   0  0  0  0  0  0  0  0  0  0  0  0
   -1.6809    1.1355   -2.0305 H   0  0  0  0  0  0  0  0  0  0  0  0
  1  2  1  0
  2  3  1  0
  3  4  1  0
  4  5  2  0
  4  6  1  0
  6  7  1  0
  7  8  1  0
  6  9  1  0
  9 10  1  0
 10 11  1  0
 11 12  1  0
 12 13  1  0
 13 14  1  0
 14  9  1  0
  1 15  1  0
  1 16  1  0
  1 17  1  0
  2 18  1  0
  2 19  1  0
  7 20  1  0
  7 21  1  0
  8 22  1  0
  8 23  1  0
  8 24  1  0
  9 25  1  0
 10 26  1  0
 10 27  1  0
 11 28  1  0
 11 29  1  0
 12 30  1  0
 12 31  1  0
 13 32  1  0
 13 33  1  0
 14 34  1  0
 14 35  1  0
M  END
>  <Energy>  (5) 
-36.92039589171187

>  <Real charge>  (5) 
0

>  <Mult>  (5) 
1

$$$$
mol_271 126
     RDKit          3D

 35 35  0  0  0  0  0  0  0  0999 V2000
    4.5998   -0.7732    0.3993 C   0  0  0  0  0  0  0  0  0  0  0  0
    4.2705   -0.0619   -0.9021 C   0  0  0  0  0  0  0  0  0  0  0  0
    2.9176    1.1292   -0.6888 S   0  0  0  0  0  0  0  0  0  0  0  0
    1.5333    0.0417   -0.6261 C   0  0  0  0  0  0  0  0  0  0  0  0
    1.6649   -1.1344   -0.9484 O   0  0  0  0  0  0  0  0  0  0  0  0
    0.3117    0.5922   -0.2137 N   0  0  0  0  0  0  0  0  0  0  0  0
    0.1629    1.9488    0.3376 C   0  0  0  0  0  0  0  0  0  0  0  0
   -0.0991    2.9954   -0.7362 C   0  0  0  0  0  0  0  0  0  0  0  0
   -0.8384   -0.3340   -0.1345 C   0  0  0  0  0  0  0  0  0  0  0  0
   -2.1740    0.2764   -0.5918 C   0  0  0  0  0  0  0  0  0  0  0  0
   -3.3111   -0.7406   -0.5035 C   0  0  0  0  0  0  0  0  0  0  0  0
   -3.4267   -1.3312    0.8986 C   0  0  0  0  0  0  0  0  0  0  0  0
   -2.1077   -1.9416    1.3626 C   0  0  0  0  0  0  0  0  0  0  0  0
   -0.9575   -0.9407    1.2746 C   0  0  0  0  0  0  0  0  0  0  0  0
    4.8876   -0.0628    1.1818 H   0  0  0  0  0  0  0  0  0  0  0  0
    3.7588   -1.3701    0.7658 H   0  0  0  0  0  0  0  0  0  0  0  0
    5.4439   -1.4540    0.2460 H   0  0  0  0  0  0  0  0  0  0  0  0
    4.0351   -0.7794   -1.6943 H   0  0  0  0  0  0  0  0  0  0  0  0
    5.1510    0.4988   -1.2331 H   0  0  0  0  0  0  0  0  0  0  0  0
   -0.6524    1.9545    1.0683 H   0  0  0  0  0  0  0  0  0  0  0  0
    1.0590    2.2188    0.9050 H   0  0  0  0  0  0  0  0  0  0  0  0
   -1.0301    2.7937   -1.2732 H   0  0  0  0  0  0  0  0  0  0  0  0
   -0.1822    3.9875   -0.2814 H   0  0  0  0  0  0  0  0  0  0  0  0
    0.7043    3.0291   -1.4774 H   0  0  0  0  0  0  0  0  0  0  0  0
   -0.6387   -1.1669   -0.8220 H   0  0  0  0  0  0  0  0  0  0  0  0
   -2.0855    0.6312   -1.6253 H   0  0  0  0  0  0  0  0  0  0  0  0
   -2.4398    1.1450    0.0211 H   0  0  0  0  0  0  0  0  0  0  0  0
   -3.1386   -1.5465   -1.2275 H   0  0  0  0  0  0  0  0  0  0  0  0
   -4.2564   -0.2602   -0.7800 H   0  0  0  0  0  0  0  0  0  0  0  0
   -4.2114   -2.0960    0.9126 H   0  0  0  0  0  0  0  0  0  0  0  0
   -3.7325   -0.5463    1.6012 H   0  0  0  0  0  0  0  0  0  0  0  0
   -2.2085   -2.2964    2.3945 H   0  0  0  0  0  0  0  0  0  0  0  0
   -1.8748   -2.8181    0.7455 H   0  0  0  0  0  0  0  0  0  0  0  0
   -0.0209   -1.4407    1.5498 H   0  0  0  0  0  0  0  0  0  0  0  0
   -1.1141   -0.1474    2.0159 H   0  0  0  0  0  0  0  0  0  0  0  0
  1  2  1  0
  2  3  1  0
  3  4  1  0
  4  5  2  0
  4  6  1  0
  6  7  1  0
  7  8  1  0
  6  9  1  0
  9 10  1  0
 10 11  1  0
 11 12  1  0
 12 13  1  0
 13 14  1  0
 14  9  1  0
  1 15  1  0
  1 16  1  0
  1 17  1  0
  2 18  1  0
  2 19  1  0
  7 20  1  0
  7 21  1  0
  8 22  1  0
  8 23  1  0
  8 24  1  0
  9 25  1  0
 10 26  1  0
 10 27  1  0
 11 28  1  0
 11 29  1  0
 12 30  1  0
 12 31  1  0
 13 32  1  0
 13 33  1  0
 14 34  1  0
 14 35  1  0
M  END
>  <Energy>  (6) 
-36.91694347420459

>  <Real charge>  (6) 
0

>  <Mult>  (6) 
1

$$$$
mol_271 20
     RDKit          3D

 35 35  0  0  0  0  0  0  0  0999 V2000
    4.2381    1.0712   -0.9294 C   0  0  0  0  0  0  0  0  0  0  0  0
    4.0977    0.3588    0.4051 C   0  0  0  0  0  0  0  0  0  0  0  0
    2.9295   -1.0268    0.3040 S   0  0  0  0  0  0  0  0  0  0  0  0
    1.3956   -0.1591    0.2933 C   0  0  0  0  0  0  0  0  0  0  0  0
    1.3698    1.0276    0.5979 O   0  0  0  0  0  0  0  0  0  0  0  0
    0.2584   -0.8950   -0.0547 N   0  0  0  0  0  0  0  0  0  0  0  0
    0.2654   -2.3176   -0.4262 C   0  0  0  0  0  0  0  0  0  0  0  0
    0.0217   -3.2222    0.7719 C   0  0  0  0  0  0  0  0  0  0  0  0
   -1.0696   -0.2530    0.0262 C   0  0  0  0  0  0  0  0  0  0  0  0
   -1.4386    0.2041    1.4484 C   0  0  0  0  0  0  0  0  0  0  0  0
   -2.8444    0.8012    1.4906 C   0  0  0  0  0  0  0  0  0  0  0  0
   -3.0075    1.9293    0.4754 C   0  0  0  0  0  0  0  0  0  0  0  0
   -2.6489    1.4750   -0.9369 C   0  0  0  0  0  0  0  0  0  0  0  0
   -1.2429    0.8801   -0.9990 C   0  0  0  0  0  0  0  0  0  0  0  0
    4.9781    1.8741   -0.8446 H   0  0  0  0  0  0  0  0  0  0  0  0
    4.5819    0.3879   -1.7134 H   0  0  0  0  0  0  0  0  0  0  0  0
    3.2967    1.5253   -1.2541 H   0  0  0  0  0  0  0  0  0  0  0  0
    3.8044    1.0572    1.1951 H   0  0  0  0  0  0  0  0  0  0  0  0
    5.0708   -0.0538    0.6916 H   0  0  0  0  0  0  0  0  0  0  0  0
   -0.5087   -2.4812   -1.1854 H   0  0  0  0  0  0  0  0  0  0  0  0
    1.2072   -2.5899   -0.9092 H   0  0  0  0  0  0  0  0  0  0  0  0
    0.7784   -3.0707    1.5478 H   0  0  0  0  0  0  0  0  0  0  0  0
    0.0501   -4.2724    0.4657 H   0  0  0  0  0  0  0  0  0  0  0  0
   -0.9578   -3.0269    1.2200 H   0  0  0  0  0  0  0  0  0  0  0  0
   -1.8054   -1.0237   -0.2437 H   0  0  0  0  0  0  0  0  0  0  0  0
   -0.7317    0.9538    1.8195 H   0  0  0  0  0  0  0  0  0  0  0  0
   -1.3815   -0.6443    2.1405 H   0  0  0  0  0  0  0  0  0  0  0  0
   -3.5815    0.0152    1.2851 H   0  0  0  0  0  0  0  0  0  0  0  0
   -3.0536    1.1787    2.4979 H   0  0  0  0  0  0  0  0  0  0  0  0
   -4.0410    2.2933    0.4932 H   0  0  0  0  0  0  0  0  0  0  0  0
   -2.3665    2.7725    0.7610 H   0  0  0  0  0  0  0  0  0  0  0  0
   -3.3766    0.7272   -1.2755 H   0  0  0  0  0  0  0  0  0  0  0  0
   -2.7200    2.3236   -1.6265 H   0  0  0  0  0  0  0  0  0  0  0  0
   -1.0518    0.4991   -2.0096 H   0  0  0  0  0  0  0  0  0  0  0  0
   -0.5160    1.6815   -0.8277 H   0  0  0  0  0  0  0  0  0  0  0  0
  1  2  1  0
  2  3  1  0
  3  4  1  0
  4  5  2  0
  4  6  1  0
  6  7  1  0
  7  8  1  0
  6  9  1  0
  9 10  1  0
 10 11  1  0
 11 12  1  0
 12 13  1  0
 13 14  1  0
 14  9  1  0
  1 15  1  0
  1 16  1  0
  1 17  1  0
  2 18  1  0
  2 19  1  0
  7 20  1  0
  7 21  1  0
  8 22  1  0
  8 23  1  0
  8 24  1  0
  9 25  1  0
 10 26  1  0
 10 27  1  0
 11 28  1  0
 11 29  1  0
 12 30  1  0
 12 31  1  0
 13 32  1  0
 13 33  1  0
 14 34  1  0
 14 35  1  0
M  END
>  <Energy>  (7) 
-36.86913215361274

>  <Real charge>  (7) 
0

>  <Mult>  (7) 
1

$$$$
mol_271 260
     RDKit          3D

 35 35  0  0  0  0  0  0  0  0999 V2000
    4.4523    1.0043    0.4364 C   0  0  0  0  0  0  0  0  0  0  0  0
    3.8130    1.4624   -0.8634 C   0  0  0  0  0  0  0  0  0  0  0  0
    2.0013    1.4680   -0.7518 S   0  0  0  0  0  0  0  0  0  0  0  0
    1.6638   -0.2550   -0.8680 C   0  0  0  0  0  0  0  0  0  0  0  0
    2.5397   -1.0257   -1.2483 O   0  0  0  0  0  0  0  0  0  0  0  0
    0.3737   -0.6806   -0.5243 N   0  0  0  0  0  0  0  0  0  0  0  0
    0.0873   -2.0977   -0.7696 C   0  0  0  0  0  0  0  0  0  0  0  0
    0.5348   -2.9863    0.3819 C   0  0  0  0  0  0  0  0  0  0  0  0
   -0.7430    0.2095   -0.1193 C   0  0  0  0  0  0  0  0  0  0  0  0
   -1.6273   -0.3701    1.0003 C   0  0  0  0  0  0  0  0  0  0  0  0
   -2.7468    0.5975    1.3823 C   0  0  0  0  0  0  0  0  0  0  0  0
   -3.5841    0.9919    0.1693 C   0  0  0  0  0  0  0  0  0  0  0  0
   -2.7196    1.5642   -0.9500 C   0  0  0  0  0  0  0  0  0  0  0  0
   -1.5910    0.6114   -1.3385 C   0  0  0  0  0  0  0  0  0  0  0  0
    4.1864   -0.0282    0.6836 H   0  0  0  0  0  0  0  0  0  0  0  0
    5.5429    1.0509    0.3493 H   0  0  0  0  0  0  0  0  0  0  0  0
    4.1610    1.6473    1.2740 H   0  0  0  0  0  0  0  0  0  0  0  0
    4.1312    2.4889   -1.0735 H   0  0  0  0  0  0  0  0  0  0  0  0
    4.1481    0.8478   -1.7046 H   0  0  0  0  0  0  0  0  0  0  0  0
   -0.9797   -2.2352   -0.9686 H   0  0  0  0  0  0  0  0  0  0  0  0
    0.6064   -2.4137   -1.6827 H   0  0  0  0  0  0  0  0  0  0  0  0
    0.0214   -2.7257    1.3117 H   0  0  0  0  0  0  0  0  0  0  0  0
    1.6107   -2.8942    0.5612 H   0  0  0  0  0  0  0  0  0  0  0  0
    0.3169   -4.0348    0.1563 H   0  0  0  0  0  0  0  0  0  0  0  0
   -0.3181    1.1272    0.2980 H   0  0  0  0  0  0  0  0  0  0  0  0
   -1.0145   -0.5819    1.8844 H   0  0  0  0  0  0  0  0  0  0  0  0
   -2.0815   -1.3191    0.6945 H   0  0  0  0  0  0  0  0  0  0  0  0
   -2.3140    1.4971    1.8371 H   0  0  0  0  0  0  0  0  0  0  0  0
   -3.3900    0.1352    2.1396 H   0  0  0  0  0  0  0  0  0  0  0  0
   -4.1256    0.1129   -0.2015 H   0  0  0  0  0  0  0  0  0  0  0  0
   -4.3380    1.7297    0.4662 H   0  0  0  0  0  0  0  0  0  0  0  0
   -2.2923    2.5217   -0.6274 H   0  0  0  0  0  0  0  0  0  0  0  0
   -3.3430    1.7730   -1.8268 H   0  0  0  0  0  0  0  0  0  0  0  0
   -0.9612    1.0880   -2.0989 H   0  0  0  0  0  0  0  0  0  0  0  0
   -2.0210   -0.2811   -1.8099 H   0  0  0  0  0  0  0  0  0  0  0  0
  1  2  1  0
  2  3  1  0
  3  4  1  0
  4  5  2  0
  4  6  1  0
  6  7  1  0
  7  8  1  0
  6  9  1  0
  9 10  1  0
 10 11  1  0
 11 12  1  0
 12 13  1  0
 13 14  1  0
 14  9  1  0
  1 15  1  0
  1 16  1  0
  1 17  1  0
  2 18  1  0
  2 19  1  0
  7 20  1  0
  7 21  1  0
  8 22  1  0
  8 23  1  0
  8 24  1  0
  9 25  1  0
 10 26  1  0
 10 27  1  0
 11 28  1  0
 11 29  1  0
 12 30  1  0
 12 31  1  0
 13 32  1  0
 13 33  1  0
 14 34  1  0
 14 35  1  0
M  END
>  <Energy>  (8) 
-36.83380617968268

>  <Real charge>  (8) 
0

>  <Mult>  (8) 
1

$$$$
mol_271 256
     RDKit          3D

 35 35  0  0  0  0  0  0  0  0999 V2000
    3.9204    2.1060   -0.9031 C   0  0  0  0  0  0  0  0  0  0  0  0
    3.7617    1.6498    0.5373 C   0  0  0  0  0  0  0  0  0  0  0  0
    2.0295    1.2805    0.9336 S   0  0  0  0  0  0  0  0  0  0  0  0
    1.8372   -0.2747    0.1331 C   0  0  0  0  0  0  0  0  0  0  0  0
    2.8260   -0.8919   -0.2505 O   0  0  0  0  0  0  0  0  0  0  0  0
    0.5306   -0.7532   -0.0330 N   0  0  0  0  0  0  0  0  0  0  0  0
    0.4016   -1.9839   -0.8199 C   0  0  0  0  0  0  0  0  0  0  0  0
    0.5944   -3.2344    0.0254 C   0  0  0  0  0  0  0  0  0  0  0  0
   -0.7037   -0.0250    0.3532 C   0  0  0  0  0  0  0  0  0  0  0  0
   -1.2341    0.8118   -0.8241 C   0  0  0  0  0  0  0  0  0  0  0  0
   -2.4792    1.6059   -0.4348 C   0  0  0  0  0  0  0  0  0  0  0  0
   -3.5656    0.7067    0.1474 C   0  0  0  0  0  0  0  0  0  0  0  0
   -3.0445   -0.1204    1.3189 C   0  0  0  0  0  0  0  0  0  0  0  0
   -1.8089   -0.9304    0.9279 C   0  0  0  0  0  0  0  0  0  0  0  0
    3.6327    1.3262   -1.6152 H   0  0  0  0  0  0  0  0  0  0  0  0
    3.3219    3.0003   -1.1079 H   0  0  0  0  0  0  0  0  0  0  0  0
    4.9679    2.3590   -1.0983 H   0  0  0  0  0  0  0  0  0  0  0  0
    4.4012    0.7874    0.7497 H   0  0  0  0  0  0  0  0  0  0  0  0
    4.0851    2.4567    1.2032 H   0  0  0  0  0  0  0  0  0  0  0  0
   -0.5695   -2.0063   -1.3235 H   0  0  0  0  0  0  0  0  0  0  0  0
    1.1536   -1.9775   -1.6184 H   0  0  0  0  0  0  0  0  0  0  0  0
    1.5820   -3.2476    0.4973 H   0  0  0  0  0  0  0  0  0  0  0  0
    0.5043   -4.1292   -0.5982 H   0  0  0  0  0  0  0  0  0  0  0  0
   -0.1531   -3.2991    0.8212 H   0  0  0  0  0  0  0  0  0  0  0  0
   -0.4552    0.6704    1.1604 H   0  0  0  0  0  0  0  0  0  0  0  0
   -1.4750    0.1591   -1.6724 H   0  0  0  0  0  0  0  0  0  0  0  0
   -0.4602    1.5033   -1.1778 H   0  0  0  0  0  0  0  0  0  0  0  0
   -2.2065    2.3718    0.3017 H   0  0  0  0  0  0  0  0  0  0  0  0
   -2.8688    2.1330   -1.3130 H   0  0  0  0  0  0  0  0  0  0  0  0
   -3.9409    0.0352   -0.6348 H   0  0  0  0  0  0  0  0  0  0  0  0
   -4.4129    1.3186    0.4765 H   0  0  0  0  0  0  0  0  0  0  0  0
   -3.8314   -0.7968    1.6713 H   0  0  0  0  0  0  0  0  0  0  0  0
   -2.7968    0.5445    2.1554 H   0  0  0  0  0  0  0  0  0  0  0  0
   -2.1126   -1.6934    0.2025 H   0  0  0  0  0  0  0  0  0  0  0  0
   -1.4313   -1.4625    1.8089 H   0  0  0  0  0  0  0  0  0  0  0  0
  1  2  1  0
  2  3  1  0
  3  4  1  0
  4  5  2  0
  4  6  1  0
  6  7  1  0
  7  8  1  0
  6  9  1  0
  9 10  1  0
 10 11  1  0
 11 12  1  0
 12 13  1  0
 13 14  1  0
 14  9  1  0
  1 15  1  0
  1 16  1  0
  1 17  1  0
  2 18  1  0
  2 19  1  0
  7 20  1  0
  7 21  1  0
  8 22  1  0
  8 23  1  0
  8 24  1  0
  9 25  1  0
 10 26  1  0
 10 27  1  0
 11 28  1  0
 11 29  1  0
 12 30  1  0
 12 31  1  0
 13 32  1  0
 13 33  1  0
 14 34  1  0
 14 35  1  0
M  END
>  <Energy>  (9) 
-36.82779987957613

>  <Real charge>  (9) 
0

>  <Mult>  (9) 
1

$$$$
