mol_1040 196
     RDKit          3D

 61 65  0  0  0  0  0  0  0  0999 V2000
   -1.8923    5.2626   -1.5611 C   0  0  0  0  0  0  0  0  0  0  0  0
   -2.0333    3.9249   -0.8936 C   0  0  0  0  0  0  0  0  0  0  0  0
   -2.7451    3.7314    0.0833 O   0  0  0  0  0  0  0  0  0  0  0  0
   -1.0806    2.6469   -1.6423 S   0  0  0  0  0  0  0  0  0  0  0  0
   -1.4683    1.2390   -0.5224 C   0  0  0  0  0  0  0  0  0  0  0  0
   -2.8229    0.6567   -0.9441 C   0  0  0  0  0  0  0  0  0  0  0  0
   -3.2078   -0.5482   -0.1181 C   0  0  0  0  0  0  0  0  0  0  0  0
   -4.4137   -0.5891    0.4769 C   0  0  0  0  0  0  0  0  0  0  0  0
   -4.8960   -1.8012    1.1771 C   0  0  0  0  0  0  0  0  0  0  0  0
   -5.9859   -1.7829    1.7428 O   0  0  0  0  0  0  0  0  0  0  0  0
   -4.0567   -3.0468    1.0846 C   0  0  0  0  0  0  0  0  0  0  0  0
   -2.5779   -2.6878    1.0732 C   0  0  0  0  0  0  0  0  0  0  0  0
   -2.1806   -1.6791   -0.0485 C   0  0  0  0  0  0  0  0  0  0  0  0
   -2.1818   -2.4185   -1.4059 C   0  0  0  0  0  0  0  0  0  0  0  0
   -0.7613   -1.0803    0.3027 C   0  0  0  0  0  0  0  0  0  0  0  0
    0.3557   -2.1449    0.2803 C   0  0  0  0  0  0  0  0  0  0  0  0
    1.6995   -1.5838    0.7372 C   0  0  0  0  0  0  0  0  0  0  0  0
    2.1659   -0.3689   -0.0938 C   0  0  0  0  0  0  0  0  0  0  0  0
    2.5967   -0.8280   -1.5012 C   0  0  0  0  0  0  0  0  0  0  0  0
    1.0471    0.6978   -0.1843 C   0  0  0  0  0  0  0  0  0  0  0  0
    1.1167    1.4364    1.1653 C   0  0  0  0  0  0  0  0  0  0  0  0
    2.5414    1.2472    1.6995 C   0  0  0  0  0  0  0  0  0  0  0  0
    3.2878    0.4279    0.6314 C   0  0  0  0  0  0  0  0  0  0  0  0
    4.4491   -0.3809    1.1800 C   0  0  0  0  0  0  0  0  0  0  0  0
    5.5673    0.6335    1.2393 C   0  0  0  0  0  0  0  0  0  0  0  0
    5.2245    1.5375    0.0951 C   0  0  0  0  0  0  0  0  0  0  0  0
    5.9801    2.3400   -0.4268 O   0  0  0  0  0  0  0  0  0  0  0  0
    3.9192    1.3598   -0.2666 O   0  0  0  0  0  0  0  0  0  0  0  0
   -0.3572    0.1495   -0.5708 C   0  0  0  0  0  0  0  0  0  0  0  0
   -2.2321    5.2055   -2.5989 H   0  0  0  0  0  0  0  0  0  0  0  0
   -2.5117    5.9954   -1.0352 H   0  0  0  0  0  0  0  0  0  0  0  0
   -0.8524    5.5982   -1.5208 H   0  0  0  0  0  0  0  0  0  0  0  0
   -1.5390    1.6131    0.5055 H   0  0  0  0  0  0  0  0  0  0  0  0
   -2.7957    0.3514   -1.9988 H   0  0  0  0  0  0  0  0  0  0  0  0
   -3.6036    1.4245   -0.8723 H   0  0  0  0  0  0  0  0  0  0  0  0
   -5.1237    0.2301    0.4288 H   0  0  0  0  0  0  0  0  0  0  0  0
   -4.2676   -3.6741    1.9577 H   0  0  0  0  0  0  0  0  0  0  0  0
   -4.3473   -3.6018    0.1871 H   0  0  0  0  0  0  0  0  0  0  0  0
   -2.3273   -2.2602    2.0542 H   0  0  0  0  0  0  0  0  0  0  0  0
   -2.0009   -3.6157    0.9837 H   0  0  0  0  0  0  0  0  0  0  0  0
   -1.7665   -1.8054   -2.2119 H   0  0  0  0  0  0  0  0  0  0  0  0
   -3.1968   -2.7000   -1.7099 H   0  0  0  0  0  0  0  0  0  0  0  0
   -1.5956   -3.3427   -1.3621 H   0  0  0  0  0  0  0  0  0  0  0  0
   -0.8296   -0.7181    1.3391 H   0  0  0  0  0  0  0  0  0  0  0  0
    0.1044   -2.9767    0.9464 H   0  0  0  0  0  0  0  0  0  0  0  0
    0.4612   -2.5717   -0.7222 H   0  0  0  0  0  0  0  0  0  0  0  0
    1.6114   -1.3212    1.7985 H   0  0  0  0  0  0  0  0  0  0  0  0
    2.4506   -2.3823    0.6887 H   0  0  0  0  0  0  0  0  0  0  0  0
    2.9166    0.0139   -2.1245 H   0  0  0  0  0  0  0  0  0  0  0  0
    3.4308   -1.5354   -1.4478 H   0  0  0  0  0  0  0  0  0  0  0  0
    1.7823   -1.3221   -2.0393 H   0  0  0  0  0  0  0  0  0  0  0  0
    1.3497    1.4198   -0.9554 H   0  0  0  0  0  0  0  0  0  0  0  0
    0.4026    1.0437    1.8959 H   0  0  0  0  0  0  0  0  0  0  0  0
    0.8894    2.5006    1.0380 H   0  0  0  0  0  0  0  0  0  0  0  0
    3.0077    2.2212    1.8848 H   0  0  0  0  0  0  0  0  0  0  0  0
    2.4956    0.7129    2.6555 H   0  0  0  0  0  0  0  0  0  0  0  0
    4.2502   -0.8469    2.1495 H   0  0  0  0  0  0  0  0  0  0  0  0
    4.7340   -1.1763    0.4810 H   0  0  0  0  0  0  0  0  0  0  0  0
    5.5504    1.2079    2.1697 H   0  0  0  0  0  0  0  0  0  0  0  0
    6.5425    0.1640    1.0922 H   0  0  0  0  0  0  0  0  0  0  0  0
   -0.2795   -0.2023   -1.6091 H   0  0  0  0  0  0  0  0  0  0  0  0
  1  2  1  0
  2  3  2  0
  2  4  1  0
  4  5  1  0
  5  6  1  0
  6  7  1  0
  7  8  2  0
  8  9  1  0
  9 10  2  0
  9 11  1  0
 11 12  1  0
 12 13  1  0
 13 14  1  0
 13 15  1  0
 15 16  1  0
 16 17  1  0
 17 18  1  0
 18 19  1  0
 18 20  1  0
 20 21  1  0
 21 22  1  0
 22 23  1  0
 23 24  1  0
 24 25  1  0
 25 26  1  0
 26 27  2  0
 26 28  1  0
 20 29  1  0
 13  7  1  0
 23 18  1  0
 28 23  1  0
 29  5  1  0
 29 15  1  0
  1 30  1  0
  1 31  1  0
  1 32  1  0
  5 33  1  0
  6 34  1  0
  6 35  1  0
  8 36  1  0
 11 37  1  0
 11 38  1  0
 12 39  1  0
 12 40  1  0
 14 41  1  0
 14 42  1  0
 14 43  1  0
 15 44  1  0
 16 45  1  0
 16 46  1  0
 17 47  1  0
 17 48  1  0
 19 49  1  0
 19 50  1  0
 19 51  1  0
 20 52  1  0
 21 53  1  0
 21 54  1  0
 22 55  1  0
 22 56  1  0
 24 57  1  0
 24 58  1  0
 25 59  1  0
 25 60  1  0
 29 61  1  0
M  END
>  <Energy>  (1) 
73.67753070659576

>  <Real charge>  (1) 
0

>  <Mult>  (1) 
1

$$$$
