mol_861 26
     RDKit          3D

 17 17  0  0  0  0  0  0  0  0999 V2000
    3.2066    0.3190   -0.3452 C   0  0  0  0  0  0  0  0  0  0  0  0
    1.8090    0.5112   -0.1189 O   0  0  0  0  0  0  0  0  0  0  0  0
    1.0660   -0.6123   -0.2792 C   0  0  0  0  0  0  0  0  0  0  0  0
    1.4908   -1.7142   -0.5868 O   0  0  0  0  0  0  0  0  0  0  0  0
   -0.3634   -0.3291   -0.0279 C   0  0  0  0  0  0  0  0  0  0  0  0
   -0.8557    0.9306    0.3246 C   0  0  0  0  0  0  0  0  0  0  0  0
   -2.2231    1.0957    0.5408 C   0  0  0  0  0  0  0  0  0  0  0  0
   -3.0517   -0.0061    0.3966 C   0  0  0  0  0  0  0  0  0  0  0  0
   -2.6098   -1.2364    0.0574 N   0  0  0  0  0  0  0  0  0  0  0  0
   -1.2748   -1.3707   -0.1475 C   0  0  0  0  0  0  0  0  0  0  0  0
    3.6143   -0.4045    0.3677 H   0  0  0  0  0  0  0  0  0  0  0  0
    3.7093    1.2779   -0.1913 H   0  0  0  0  0  0  0  0  0  0  0  0
    3.3870   -0.0056   -1.3748 H   0  0  0  0  0  0  0  0  0  0  0  0
   -0.1917    1.7836    0.4333 H   0  0  0  0  0  0  0  0  0  0  0  0
   -2.6328    2.0618    0.8153 H   0  0  0  0  0  0  0  0  0  0  0  0
   -4.1239    0.0738    0.5548 H   0  0  0  0  0  0  0  0  0  0  0  0
   -0.9561   -2.3747   -0.4189 H   0  0  0  0  0  0  0  0  0  0  0  0
  1  2  1  0
  2  3  1  0
  3  4  2  0
  3  5  1  0
  5  6  2  0
  6  7  1  0
  7  8  2  0
  8  9  1  0
  9 10  2  0
 10  5  1  0
  1 11  1  0
  1 12  1  0
  1 13  1  0
  6 14  1  0
  7 15  1  0
  8 16  1  0
 10 17  1  0
M  END
>  <Energy>  (1) 
25.911478472524603

>  <Real charge>  (1) 
0

>  <Mult>  (1) 
1

$$$$
mol_861 73
     RDKit          3D

 17 17  0  0  0  0  0  0  0  0999 V2000
   -3.2745    0.2941    0.2231 C   0  0  0  0  0  0  0  0  0  0  0  0
   -1.8682    0.4825    0.3932 O   0  0  0  0  0  0  0  0  0  0  0  0
   -1.1059   -0.3574   -0.3494 C   0  0  0  0  0  0  0  0  0  0  0  0
   -1.5210   -1.2162   -1.1114 O   0  0  0  0  0  0  0  0  0  0  0  0
    0.3330   -0.1024   -0.1201 C   0  0  0  0  0  0  0  0  0  0  0  0
    1.2842   -0.8699   -0.7981 C   0  0  0  0  0  0  0  0  0  0  0  0
    2.6404   -0.6319   -0.5841 C   0  0  0  0  0  0  0  0  0  0  0  0
    2.9998    0.3692    0.3040 C   0  0  0  0  0  0  0  0  0  0  0  0
    2.1085    1.1303    0.9764 N   0  0  0  0  0  0  0  0  0  0  0  0
    0.7940    0.8776    0.7494 C   0  0  0  0  0  0  0  0  0  0  0  0
   -3.5661   -0.7145    0.5325 H   0  0  0  0  0  0  0  0  0  0  0  0
   -3.5631    0.4807   -0.8161 H   0  0  0  0  0  0  0  0  0  0  0  0
   -3.7922    1.0155    0.8612 H   0  0  0  0  0  0  0  0  0  0  0  0
    0.9731   -1.6497   -1.4899 H   0  0  0  0  0  0  0  0  0  0  0  0
    3.3976   -1.2139   -1.0981 H   0  0  0  0  0  0  0  0  0  0  0  0
    4.0442    0.5925    0.5042 H   0  0  0  0  0  0  0  0  0  0  0  0
    0.1161    1.5137    1.3117 H   0  0  0  0  0  0  0  0  0  0  0  0
  1  2  1  0
  2  3  1  0
  3  4  2  0
  3  5  1  0
  5  6  2  0
  6  7  1  0
  7  8  2  0
  8  9  1  0
  9 10  2  0
 10  5  1  0
  1 11  1  0
  1 12  1  0
  1 13  1  0
  6 14  1  0
  7 15  1  0
  8 16  1  0
 10 17  1  0
M  END
>  <Energy>  (2) 
26.090799365430115

>  <Real charge>  (2) 
0

>  <Mult>  (2) 
1

$$$$
