mol_567 348
     RDKit          3D

 22 21  0  0  0  0  0  0  0  0999 V2000
    4.1931   -0.2964   -0.0377 C   0  0  0  0  0  0  0  0  0  0  0  0
    2.9513    0.5627    0.0940 C   0  0  0  0  0  0  0  0  0  0  0  0
    1.8065   -0.2753   -0.0474 O   0  0  0  0  0  0  0  0  0  0  0  0
    0.5945    0.4703    0.0662 C   0  0  0  0  0  0  0  0  0  0  0  0
   -0.5945   -0.4703   -0.0920 C   0  0  0  0  0  0  0  0  0  0  0  0
   -1.8065    0.2753    0.0216 O   0  0  0  0  0  0  0  0  0  0  0  0
   -2.9513   -0.5627   -0.1198 C   0  0  0  0  0  0  0  0  0  0  0  0
   -4.1931    0.2964    0.0120 C   0  0  0  0  0  0  0  0  0  0  0  0
    4.2027   -1.0800    0.7271 H   0  0  0  0  0  0  0  0  0  0  0  0
    5.0986    0.3082    0.0647 H   0  0  0  0  0  0  0  0  0  0  0  0
    4.2122   -0.7999   -1.0099 H   0  0  0  0  0  0  0  0  0  0  0  0
    2.9460    1.3315   -0.6865 H   0  0  0  0  0  0  0  0  0  0  0  0
    2.9364    1.0472    1.0765 H   0  0  0  0  0  0  0  0  0  0  0  0
    0.5578    1.2483   -0.7058 H   0  0  0  0  0  0  0  0  0  0  0  0
    0.5482    0.9662    1.0432 H   0  0  0  0  0  0  0  0  0  0  0  0
   -0.5482   -0.9662   -1.0690 H   0  0  0  0  0  0  0  0  0  0  0  0
   -0.5578   -1.2483    0.6801 H   0  0  0  0  0  0  0  0  0  0  0  0
   -2.9364   -1.0472   -1.1023 H   0  0  0  0  0  0  0  0  0  0  0  0
   -2.9460   -1.3315    0.6607 H   0  0  0  0  0  0  0  0  0  0  0  0
   -5.0986   -0.3082   -0.0905 H   0  0  0  0  0  0  0  0  0  0  0  0
   -4.2027    1.0800   -0.7528 H   0  0  0  0  0  0  0  0  0  0  0  0
   -4.2122    0.7999    0.9842 H   0  0  0  0  0  0  0  0  0  0  0  0
  1  2  1  0
  2  3  1  0
  3  4  1  0
  4  5  1  0
  5  6  1  0
  6  7  1  0
  7  8  1  0
  1  9  1  0
  1 10  1  0
  1 11  1  0
  2 12  1  0
  2 13  1  0
  4 14  1  0
  4 15  1  0
  5 16  1  0
  5 17  1  0
  7 18  1  0
  7 19  1  0
  8 20  1  0
  8 21  1  0
  8 22  1  0
M  END
>  <Energy>  (1) 
22.13918262336382

>  <Real charge>  (1) 
0

>  <Mult>  (1) 
1

$$$$
