mol_842 68
     RDKit          3D

 18 18  0  0  0  0  0  0  0  0999 V2000
    1.5115    1.4963    0.1187 C   0  0  0  0  0  0  0  0  0  0  0  0
    0.2342    0.7042    0.0600 C   0  0  0  0  0  0  0  0  0  0  0  0
   -0.9957    1.3776    0.1302 C   0  0  0  0  0  0  0  0  0  0  0  0
   -2.1988    0.6743    0.0787 C   0  0  0  0  0  0  0  0  0  0  0  0
   -2.1882   -0.7110   -0.0436 C   0  0  0  0  0  0  0  0  0  0  0  0
   -0.9744   -1.3941   -0.1144 C   0  0  0  0  0  0  0  0  0  0  0  0
    0.2450   -0.7002   -0.0639 C   0  0  0  0  0  0  0  0  0  0  0  0
    1.5342   -1.4708   -0.1431 C   0  0  0  0  0  0  0  0  0  0  0  0
    2.0928    1.3490   -0.7969 H   0  0  0  0  0  0  0  0  0  0  0  0
    1.3152    2.5695    0.2150 H   0  0  0  0  0  0  0  0  0  0  0  0
    2.1084    1.1919    0.9842 H   0  0  0  0  0  0  0  0  0  0  0  0
   -1.0242    2.4608    0.2259 H   0  0  0  0  0  0  0  0  0  0  0  0
   -3.1433    1.2088    0.1340 H   0  0  0  0  0  0  0  0  0  0  0  0
   -3.1243   -1.2612   -0.0839 H   0  0  0  0  0  0  0  0  0  0  0  0
   -0.9864   -2.4776   -0.2098 H   0  0  0  0  0  0  0  0  0  0  0  0
    2.1276   -1.3136    0.7632 H   0  0  0  0  0  0  0  0  0  0  0  0
    2.1120   -1.1566   -1.0180 H   0  0  0  0  0  0  0  0  0  0  0  0
    1.3545   -2.5471   -0.2364 H   0  0  0  0  0  0  0  0  0  0  0  0
  1  2  1  0
  2  3  2  0
  3  4  1  0
  4  5  2  0
  5  6  1  0
  6  7  2  0
  7  8  1  0
  7  2  1  0
  1  9  1  0
  1 10  1  0
  1 11  1  0
  3 12  1  0
  4 13  1  0
  5 14  1  0
  6 15  1  0
  8 16  1  0
  8 17  1  0
  8 18  1  0
M  END
>  <Energy>  (1) 
21.99477518832518

>  <Real charge>  (1) 
0

>  <Mult>  (1) 
1

$$$$
