mol_895 597
     RDKit          3D

 31 31  0  0  0  0  0  0  0  0999 V2000
    3.8010   -1.1578    0.1510 C   0  0  0  0  0  0  0  0  0  0  0  0
    3.5147    0.3396    0.0392 C   0  0  0  0  0  0  0  0  0  0  0  0
    4.5905    1.0172   -0.8105 C   0  0  0  0  0  0  0  0  0  0  0  0
    2.2240    0.5739   -0.5955 N   0  0  0  0  0  0  0  0  0  0  0  0
    1.0810    0.3291    0.1467 C   0  0  0  0  0  0  0  0  0  0  0  0
    1.0886    0.4788    1.4576 N   0  0  0  0  0  0  0  0  0  0  0  0
   -0.0795    0.2217    2.0222 C   0  0  0  0  0  0  0  0  0  0  0  0
   -0.1430    0.3988    3.7217 Cl  0  0  0  0  0  0  0  0  0  0  0  0
   -1.2047   -0.1550    1.4379 N   0  0  0  0  0  0  0  0  0  0  0  0
   -1.0992   -0.2784    0.1285 C   0  0  0  0  0  0  0  0  0  0  0  0
   -2.1862   -0.6795   -0.6296 N   0  0  0  0  0  0  0  0  0  0  0  0
   -3.5184   -0.3295   -0.1538 C   0  0  0  0  0  0  0  0  0  0  0  0
   -4.5337   -1.1758   -0.9228 C   0  0  0  0  0  0  0  0  0  0  0  0
   -3.8006    1.1566   -0.3741 C   0  0  0  0  0  0  0  0  0  0  0  0
    0.0167   -0.0467   -0.5540 N   0  0  0  0  0  0  0  0  0  0  0  0
    3.0651   -1.6571    0.7900 H   0  0  0  0  0  0  0  0  0  0  0  0
    3.7693   -1.6441   -0.8306 H   0  0  0  0  0  0  0  0  0  0  0  0
    4.7911   -1.3326    0.5851 H   0  0  0  0  0  0  0  0  0  0  0  0
    3.5514    0.7953    1.0365 H   0  0  0  0  0  0  0  0  0  0  0  0
    4.3987    2.0928   -0.8930 H   0  0  0  0  0  0  0  0  0  0  0  0
    4.6154    0.6075   -1.8266 H   0  0  0  0  0  0  0  0  0  0  0  0
    5.5818    0.8839   -0.3647 H   0  0  0  0  0  0  0  0  0  0  0  0
    2.0957    0.1545   -1.5100 H   0  0  0  0  0  0  0  0  0  0  0  0
   -1.9874   -0.4564   -1.5989 H   0  0  0  0  0  0  0  0  0  0  0  0
   -3.6321   -0.5703    0.9105 H   0  0  0  0  0  0  0  0  0  0  0  0
   -5.5541   -0.9612   -0.5884 H   0  0  0  0  0  0  0  0  0  0  0  0
   -4.4803   -0.9842   -2.0006 H   0  0  0  0  0  0  0  0  0  0  0  0
   -4.3446   -2.2438   -0.7677 H   0  0  0  0  0  0  0  0  0  0  0  0
   -3.6928    1.4307   -1.4297 H   0  0  0  0  0  0  0  0  0  0  0  0
   -3.1100    1.7824    0.2010 H   0  0  0  0  0  0  0  0  0  0  0  0
   -4.8186    1.4094   -0.0595 H   0  0  0  0  0  0  0  0  0  0  0  0
  1  2  1  0
  2  3  1  0
  2  4  1  0
  4  5  1  0
  5  6  2  0
  6  7  1  0
  7  8  1  0
  7  9  2  0
  9 10  1  0
 10 11  1  0
 11 12  1  0
 12 13  1  0
 12 14  1  0
 10 15  2  0
 15  5  1  0
  1 16  1  0
  1 17  1  0
  1 18  1  0
  2 19  1  0
  3 20  1  0
  3 21  1  0
  3 22  1  0
  4 23  1  0
 11 24  1  0
 12 25  1  0
 13 26  1  0
 13 27  1  0
 13 28  1  0
 14 29  1  0
 14 30  1  0
 14 31  1  0
M  END
>  <Energy>  (1) 
-237.21684839524377

>  <Real charge>  (1) 
0

>  <Mult>  (1) 
1

$$$$
mol_895 271
     RDKit          3D

 31 31  0  0  0  0  0  0  0  0999 V2000
    4.1833    0.4246    1.4137 C   0  0  0  0  0  0  0  0  0  0  0  0
    2.9948   -0.0256    0.5633 C   0  0  0  0  0  0  0  0  0  0  0  0
    3.4638   -0.9951   -0.5216 C   0  0  0  0  0  0  0  0  0  0  0  0
    2.3883    1.1600   -0.0285 N   0  0  0  0  0  0  0  0  0  0  0  0
    1.1250    1.0316   -0.5811 C   0  0  0  0  0  0  0  0  0  0  0  0
    0.8689    1.8257   -1.6023 N   0  0  0  0  0  0  0  0  0  0  0  0
   -0.3540    1.6776   -2.0870 C   0  0  0  0  0  0  0  0  0  0  0  0
   -0.7587    2.6811   -3.4111 Cl  0  0  0  0  0  0  0  0  0  0  0  0
   -1.3033    0.8532   -1.6761 N   0  0  0  0  0  0  0  0  0  0  0  0
   -0.9386    0.1029   -0.6541 C   0  0  0  0  0  0  0  0  0  0  0  0
   -1.8138   -0.8242   -0.1136 N   0  0  0  0  0  0  0  0  0  0  0  0
   -3.2403   -0.5329   -0.1753 C   0  0  0  0  0  0  0  0  0  0  0  0
   -4.0009   -1.8239    0.1298 C   0  0  0  0  0  0  0  0  0  0  0  0
   -3.6180    0.5494    0.8360 C   0  0  0  0  0  0  0  0  0  0  0  0
    0.2563    0.1600   -0.0787 N   0  0  0  0  0  0  0  0  0  0  0  0
    3.8582    1.1159    2.1991 H   0  0  0  0  0  0  0  0  0  0  0  0
    4.6653   -0.4323    1.8961 H   0  0  0  0  0  0  0  0  0  0  0  0
    4.9355    0.9430    0.8083 H   0  0  0  0  0  0  0  0  0  0  0  0
    2.2904   -0.5364    1.2315 H   0  0  0  0  0  0  0  0  0  0  0  0
    3.9618   -1.8635   -0.0775 H   0  0  0  0  0  0  0  0  0  0  0  0
    4.1684   -0.5136   -1.2090 H   0  0  0  0  0  0  0  0  0  0  0  0
    2.6219   -1.3635   -1.1171 H   0  0  0  0  0  0  0  0  0  0  0  0
    2.9658    1.6709   -0.6879 H   0  0  0  0  0  0  0  0  0  0  0  0
   -1.4539   -1.0917    0.7964 H   0  0  0  0  0  0  0  0  0  0  0  0
   -3.5332   -0.2116   -1.1826 H   0  0  0  0  0  0  0  0  0  0  0  0
   -3.7424   -2.6060   -0.5927 H   0  0  0  0  0  0  0  0  0  0  0  0
   -5.0826   -1.6613    0.0791 H   0  0  0  0  0  0  0  0  0  0  0  0
   -3.7595   -2.2046    1.1287 H   0  0  0  0  0  0  0  0  0  0  0  0
   -4.6973    0.7343    0.8221 H   0  0  0  0  0  0  0  0  0  0  0  0
   -3.3356    0.2595    1.8544 H   0  0  0  0  0  0  0  0  0  0  0  0
   -3.1157    1.4964    0.6117 H   0  0  0  0  0  0  0  0  0  0  0  0
  1  2  1  0
  2  3  1  0
  2  4  1  0
  4  5  1  0
  5  6  2  0
  6  7  1  0
  7  8  1  0
  7  9  2  0
  9 10  1  0
 10 11  1  0
 11 12  1  0
 12 13  1  0
 12 14  1  0
 10 15  2  0
 15  5  1  0
  1 16  1  0
  1 17  1  0
  1 18  1  0
  2 19  1  0
  3 20  1  0
  3 21  1  0
  3 22  1  0
  4 23  1  0
 11 24  1  0
 12 25  1  0
 13 26  1  0
 13 27  1  0
 13 28  1  0
 14 29  1  0
 14 30  1  0
 14 31  1  0
M  END
>  <Energy>  (2) 
-237.1881864849998

>  <Real charge>  (2) 
0

>  <Mult>  (2) 
1

$$$$
mol_895 377
     RDKit          3D

 31 31  0  0  0  0  0  0  0  0999 V2000
   -3.8804   -0.3135   -0.9147 C   0  0  0  0  0  0  0  0  0  0  0  0
   -2.4995   -0.2231   -0.2641 C   0  0  0  0  0  0  0  0  0  0  0  0
   -2.4431   -1.1181    0.9738 C   0  0  0  0  0  0  0  0  0  0  0  0
   -2.2574    1.1679    0.0918 N   0  0  0  0  0  0  0  0  0  0  0  0
   -0.9642    1.5468    0.4061 C   0  0  0  0  0  0  0  0  0  0  0  0
   -0.8560    2.5550    1.2489 N   0  0  0  0  0  0  0  0  0  0  0  0
    0.3987    2.8874    1.5092 C   0  0  0  0  0  0  0  0  0  0  0  0
    0.6147    4.1825    2.6052 Cl  0  0  0  0  0  0  0  0  0  0  0  0
    1.5079    2.3282    1.0512 N   0  0  0  0  0  0  0  0  0  0  0  0
    1.2835    1.3311    0.2181 C   0  0  0  0  0  0  0  0  0  0  0  0
    2.4122    0.7198   -0.2987 N   0  0  0  0  0  0  0  0  0  0  0  0
    2.3252   -0.6861   -0.6676 C   0  0  0  0  0  0  0  0  0  0  0  0
    2.3054   -1.5738    0.5766 C   0  0  0  0  0  0  0  0  0  0  0  0
    3.5379   -1.0253   -1.5351 C   0  0  0  0  0  0  0  0  0  0  0  0
    0.0721    0.9063   -0.1230 N   0  0  0  0  0  0  0  0  0  0  0  0
   -4.6685    0.0186   -0.2294 H   0  0  0  0  0  0  0  0  0  0  0  0
   -3.9305    0.3202   -1.8072 H   0  0  0  0  0  0  0  0  0  0  0  0
   -4.1029   -1.3420   -1.2176 H   0  0  0  0  0  0  0  0  0  0  0  0
   -1.7673   -0.5732   -1.0025 H   0  0  0  0  0  0  0  0  0  0  0  0
   -1.4485   -1.1021    1.4318 H   0  0  0  0  0  0  0  0  0  0  0  0
   -3.1617   -0.7924    1.7342 H   0  0  0  0  0  0  0  0  0  0  0  0
   -2.6716   -2.1569    0.7127 H   0  0  0  0  0  0  0  0  0  0  0  0
   -2.8848    1.5745    0.7767 H   0  0  0  0  0  0  0  0  0  0  0  0
    3.2090    0.9897    0.2671 H   0  0  0  0  0  0  0  0  0  0  0  0
    1.4288   -0.8799   -1.2697 H   0  0  0  0  0  0  0  0  0  0  0  0
    1.4209   -1.3774    1.1918 H   0  0  0  0  0  0  0  0  0  0  0  0
    3.1878   -1.4016    1.2032 H   0  0  0  0  0  0  0  0  0  0  0  0
    2.2875   -2.6327    0.2980 H   0  0  0  0  0  0  0  0  0  0  0  0
    3.5593   -0.3985   -2.4336 H   0  0  0  0  0  0  0  0  0  0  0  0
    4.4765   -0.8589   -0.9942 H   0  0  0  0  0  0  0  0  0  0  0  0
    3.5093   -2.0724   -1.8542 H   0  0  0  0  0  0  0  0  0  0  0  0
  1  2  1  0
  2  3  1  0
  2  4  1  0
  4  5  1  0
  5  6  2  0
  6  7  1  0
  7  8  1  0
  7  9  2  0
  9 10  1  0
 10 11  1  0
 11 12  1  0
 12 13  1  0
 12 14  1  0
 10 15  2  0
 15  5  1  0
  1 16  1  0
  1 17  1  0
  1 18  1  0
  2 19  1  0
  3 20  1  0
  3 21  1  0
  3 22  1  0
  4 23  1  0
 11 24  1  0
 12 25  1  0
 13 26  1  0
 13 27  1  0
 13 28  1  0
 14 29  1  0
 14 30  1  0
 14 31  1  0
M  END
>  <Energy>  (3) 
-236.9212470264212

>  <Real charge>  (3) 
0

>  <Mult>  (3) 
1

$$$$
mol_895 202
     RDKit          3D

 31 31  0  0  0  0  0  0  0  0999 V2000
    4.7537    0.5576   -0.0280 C   0  0  0  0  0  0  0  0  0  0  0  0
    3.4729   -0.2690    0.0923 C   0  0  0  0  0  0  0  0  0  0  0  0
    3.2844   -1.1294   -1.1569 C   0  0  0  0  0  0  0  0  0  0  0  0
    2.3555    0.6503    0.2591 N   0  0  0  0  0  0  0  0  0  0  0  0
    1.1484    0.1408    0.7043 C   0  0  0  0  0  0  0  0  0  0  0  0
    1.1187   -0.9164    1.4933 N   0  0  0  0  0  0  0  0  0  0  0  0
   -0.1046   -1.2728    1.8479 C   0  0  0  0  0  0  0  0  0  0  0  0
   -0.2188   -2.6476    2.8582 Cl  0  0  0  0  0  0  0  0  0  0  0  0
   -1.2522   -0.7174    1.4961 N   0  0  0  0  0  0  0  0  0  0  0  0
   -1.1072    0.3300    0.7070 C   0  0  0  0  0  0  0  0  0  0  0  0
   -2.2135    1.0337    0.2645 N   0  0  0  0  0  0  0  0  0  0  0  0
   -3.4689    0.3135    0.1005 C   0  0  0  0  0  0  0  0  0  0  0  0
   -3.4294   -0.5660   -1.1489 C   0  0  0  0  0  0  0  0  0  0  0  0
   -4.5943    1.3420   -0.0169 C   0  0  0  0  0  0  0  0  0  0  0  0
    0.0662    0.7849    0.2810 N   0  0  0  0  0  0  0  0  0  0  0  0
    5.6285   -0.0916   -0.1390 H   0  0  0  0  0  0  0  0  0  0  0  0
    4.7164    1.2308   -0.8920 H   0  0  0  0  0  0  0  0  0  0  0  0
    4.9019    1.1749    0.8651 H   0  0  0  0  0  0  0  0  0  0  0  0
    3.5837   -0.9172    0.9704 H   0  0  0  0  0  0  0  0  0  0  0  0
    3.1682   -0.5103   -2.0536 H   0  0  0  0  0  0  0  0  0  0  0  0
    4.1458   -1.7885   -1.3081 H   0  0  0  0  0  0  0  0  0  0  0  0
    2.3933   -1.7606   -1.0744 H   0  0  0  0  0  0  0  0  0  0  0  0
    2.1686    1.2767   -0.5157 H   0  0  0  0  0  0  0  0  0  0  0  0
   -1.9266    1.6203   -0.5109 H   0  0  0  0  0  0  0  0  0  0  0  0
   -3.6841   -0.3074    0.9790 H   0  0  0  0  0  0  0  0  0  0  0  0
   -2.6557   -1.3369   -1.0684 H   0  0  0  0  0  0  0  0  0  0  0  0
   -4.3889   -1.0724   -1.2980 H   0  0  0  0  0  0  0  0  0  0  0  0
   -3.2137    0.0252   -2.0461 H   0  0  0  0  0  0  0  0  0  0  0  0
   -4.6354    1.9752    0.8764 H   0  0  0  0  0  0  0  0  0  0  0  0
   -5.5653    0.8477   -0.1258 H   0  0  0  0  0  0  0  0  0  0  0  0
   -4.4474    1.9997   -0.8812 H   0  0  0  0  0  0  0  0  0  0  0  0
  1  2  1  0
  2  3  1  0
  2  4  1  0
  4  5  1  0
  5  6  2  0
  6  7  1  0
  7  8  1  0
  7  9  2  0
  9 10  1  0
 10 11  1  0
 11 12  1  0
 12 13  1  0
 12 14  1  0
 10 15  2  0
 15  5  1  0
  1 16  1  0
  1 17  1  0
  1 18  1  0
  2 19  1  0
  3 20  1  0
  3 21  1  0
  3 22  1  0
  4 23  1  0
 11 24  1  0
 12 25  1  0
 13 26  1  0
 13 27  1  0
 13 28  1  0
 14 29  1  0
 14 30  1  0
 14 31  1  0
M  END
>  <Energy>  (4) 
-236.8765572998612

>  <Real charge>  (4) 
0

>  <Mult>  (4) 
1

$$$$
mol_895 483
     RDKit          3D

 31 31  0  0  0  0  0  0  0  0999 V2000
    2.7455    1.5695   -0.8263 C   0  0  0  0  0  0  0  0  0  0  0  0
    2.9505    0.4489    0.1929 C   0  0  0  0  0  0  0  0  0  0  0  0
    4.4156    0.3965    0.6278 C   0  0  0  0  0  0  0  0  0  0  0  0
    2.6034   -0.8426   -0.3829 N   0  0  0  0  0  0  0  0  0  0  0  0
    1.2640   -1.1437   -0.5567 C   0  0  0  0  0  0  0  0  0  0  0  0
    0.9908   -1.9536   -1.5609 N   0  0  0  0  0  0  0  0  0  0  0  0
   -0.2994   -2.2255   -1.6787 C   0  0  0  0  0  0  0  0  0  0  0  0
   -0.7292   -3.2596   -2.9710 Cl  0  0  0  0  0  0  0  0  0  0  0  0
   -1.3012   -1.7770   -0.9407 N   0  0  0  0  0  0  0  0  0  0  0  0
   -0.9156   -0.9762    0.0343 C   0  0  0  0  0  0  0  0  0  0  0  0
   -1.8429   -0.4359    0.9079 N   0  0  0  0  0  0  0  0  0  0  0  0
   -3.1887   -0.1823    0.4122 C   0  0  0  0  0  0  0  0  0  0  0  0
   -3.2079    1.0447   -0.4992 C   0  0  0  0  0  0  0  0  0  0  0  0
   -4.1033    0.0441    1.6165 C   0  0  0  0  0  0  0  0  0  0  0  0
    0.3464   -0.6277    0.2550 N   0  0  0  0  0  0  0  0  0  0  0  0
    3.3299    1.3927   -1.7362 H   0  0  0  0  0  0  0  0  0  0  0  0
    1.6939    1.6518   -1.1208 H   0  0  0  0  0  0  0  0  0  0  0  0
    3.0502    2.5349   -0.4087 H   0  0  0  0  0  0  0  0  0  0  0  0
    2.3511    0.6542    1.0885 H   0  0  0  0  0  0  0  0  0  0  0  0
    5.0788    0.1977   -0.2217 H   0  0  0  0  0  0  0  0  0  0  0  0
    4.5733   -0.4003    1.3631 H   0  0  0  0  0  0  0  0  0  0  0  0
    4.7214    1.3435    1.0848 H   0  0  0  0  0  0  0  0  0  0  0  0
    3.1005   -1.1072   -1.2263 H   0  0  0  0  0  0  0  0  0  0  0  0
   -1.3968    0.3251    1.4077 H   0  0  0  0  0  0  0  0  0  0  0  0
   -3.5771   -1.0506   -0.1344 H   0  0  0  0  0  0  0  0  0  0  0  0
   -2.5906    0.8882   -1.3902 H   0  0  0  0  0  0  0  0  0  0  0  0
   -2.8225    1.9311    0.0173 H   0  0  0  0  0  0  0  0  0  0  0  0
   -4.2271    1.2632   -0.8351 H   0  0  0  0  0  0  0  0  0  0  0  0
   -5.1347    0.2236    1.2954 H   0  0  0  0  0  0  0  0  0  0  0  0
   -4.1015   -0.8319    2.2746 H   0  0  0  0  0  0  0  0  0  0  0  0
   -3.7765    0.9045    2.2115 H   0  0  0  0  0  0  0  0  0  0  0  0
  1  2  1  0
  2  3  1  0
  2  4  1  0
  4  5  1  0
  5  6  2  0
  6  7  1  0
  7  8  1  0
  7  9  2  0
  9 10  1  0
 10 11  1  0
 11 12  1  0
 12 13  1  0
 12 14  1  0
 10 15  2  0
 15  5  1  0
  1 16  1  0
  1 17  1  0
  1 18  1  0
  2 19  1  0
  3 20  1  0
  3 21  1  0
  3 22  1  0
  4 23  1  0
 11 24  1  0
 12 25  1  0
 13 26  1  0
 13 27  1  0
 13 28  1  0
 14 29  1  0
 14 30  1  0
 14 31  1  0
M  END
>  <Energy>  (5) 
-236.8209204736881

>  <Real charge>  (5) 
0

>  <Mult>  (5) 
1

$$$$
mol_895 558
     RDKit          3D

 31 31  0  0  0  0  0  0  0  0999 V2000
   -2.0909   -1.1073   -1.4002 C   0  0  0  0  0  0  0  0  0  0  0  0
   -2.5932   -0.5288   -0.0771 C   0  0  0  0  0  0  0  0  0  0  0  0
   -4.1028   -0.7517    0.0410 C   0  0  0  0  0  0  0  0  0  0  0  0
   -2.3262    0.9047   -0.0272 N   0  0  0  0  0  0  0  0  0  0  0  0
   -1.1277    1.2976    0.5532 C   0  0  0  0  0  0  0  0  0  0  0  0
   -1.1505    2.4671    1.1620 N   0  0  0  0  0  0  0  0  0  0  0  0
    0.0183    2.8109    1.6805 C   0  0  0  0  0  0  0  0  0  0  0  0
    0.0633    4.3216    2.4809 Cl  0  0  0  0  0  0  0  0  0  0  0  0
    1.1565    2.1351    1.6588 N   0  0  0  0  0  0  0  0  0  0  0  0
    1.0632    0.9775    1.0347 C   0  0  0  0  0  0  0  0  0  0  0  0
    2.2236    0.2227    0.9977 N   0  0  0  0  0  0  0  0  0  0  0  0
    2.4235   -0.6603   -0.1443 C   0  0  0  0  0  0  0  0  0  0  0  0
    2.7840    0.1405   -1.3954 C   0  0  0  0  0  0  0  0  0  0  0  0
    3.5534   -1.6316    0.2001 C   0  0  0  0  0  0  0  0  0  0  0  0
   -0.0512    0.5244    0.4722 N   0  0  0  0  0  0  0  0  0  0  0  0
   -2.3178   -2.1766   -1.4673 H   0  0  0  0  0  0  0  0  0  0  0  0
   -1.0078   -0.9910   -1.5063 H   0  0  0  0  0  0  0  0  0  0  0  0
   -2.5587   -0.6065   -2.2555 H   0  0  0  0  0  0  0  0  0  0  0  0
   -2.1177   -1.0542    0.7614 H   0  0  0  0  0  0  0  0  0  0  0  0
   -4.3445   -1.8190    0.0007 H   0  0  0  0  0  0  0  0  0  0  0  0
   -4.4798   -0.3566    0.9909 H   0  0  0  0  0  0  0  0  0  0  0  0
   -4.6463   -0.2471   -0.7658 H   0  0  0  0  0  0  0  0  0  0  0  0
   -3.0494    1.4772    0.3970 H   0  0  0  0  0  0  0  0  0  0  0  0
    3.0006    0.8314    1.2314 H   0  0  0  0  0  0  0  0  0  0  0  0
    1.5261   -1.2605   -0.3392 H   0  0  0  0  0  0  0  0  0  0  0  0
    1.9695    0.8121   -1.6867 H   0  0  0  0  0  0  0  0  0  0  0  0
    2.9816   -0.5274   -2.2404 H   0  0  0  0  0  0  0  0  0  0  0  0
    3.6761    0.7555   -1.2318 H   0  0  0  0  0  0  0  0  0  0  0  0
    3.3036   -2.2160    1.0926 H   0  0  0  0  0  0  0  0  0  0  0  0
    4.4898   -1.1002    0.4049 H   0  0  0  0  0  0  0  0  0  0  0  0
    3.7314   -2.3313   -0.6231 H   0  0  0  0  0  0  0  0  0  0  0  0
  1  2  1  0
  2  3  1  0
  2  4  1  0
  4  5  1  0
  5  6  2  0
  6  7  1  0
  7  8  1  0
  7  9  2  0
  9 10  1  0
 10 11  1  0
 11 12  1  0
 12 13  1  0
 12 14  1  0
 10 15  2  0
 15  5  1  0
  1 16  1  0
  1 17  1  0
  1 18  1  0
  2 19  1  0
  3 20  1  0
  3 21  1  0
  3 22  1  0
  4 23  1  0
 11 24  1  0
 12 25  1  0
 13 26  1  0
 13 27  1  0
 13 28  1  0
 14 29  1  0
 14 30  1  0
 14 31  1  0
M  END
>  <Energy>  (6) 
-236.50763645752755

>  <Real charge>  (6) 
0

>  <Mult>  (6) 
1

$$$$
mol_895 36
     RDKit          3D

 31 31  0  0  0  0  0  0  0  0999 V2000
    4.1278    0.9779    0.8404 C   0  0  0  0  0  0  0  0  0  0  0  0
    3.4871   -0.1331    0.0087 C   0  0  0  0  0  0  0  0  0  0  0  0
    4.4220   -0.5196   -1.1398 C   0  0  0  0  0  0  0  0  0  0  0  0
    2.2228    0.3311   -0.5528 N   0  0  0  0  0  0  0  0  0  0  0  0
    1.0756    0.0835    0.1889 C   0  0  0  0  0  0  0  0  0  0  0  0
    1.1202    0.0419    1.5067 N   0  0  0  0  0  0  0  0  0  0  0  0
   -0.0565   -0.1865    2.0660 C   0  0  0  0  0  0  0  0  0  0  0  0
   -0.0723   -0.2466    3.7746 Cl  0  0  0  0  0  0  0  0  0  0  0  0
   -1.2221   -0.3742    1.4699 N   0  0  0  0  0  0  0  0  0  0  0  0
   -1.1518   -0.3199    0.1535 C   0  0  0  0  0  0  0  0  0  0  0  0
   -2.2844   -0.5111   -0.6196 N   0  0  0  0  0  0  0  0  0  0  0  0
   -3.5700   -0.1153   -0.0587 C   0  0  0  0  0  0  0  0  0  0  0  0
   -3.7177    1.4062   -0.0605 C   0  0  0  0  0  0  0  0  0  0  0  0
   -4.6726   -0.7502   -0.9069 C   0  0  0  0  0  0  0  0  0  0  0  0
   -0.0313   -0.0946   -0.5239 N   0  0  0  0  0  0  0  0  0  0  0  0
    5.0968    0.6565    1.2369 H   0  0  0  0  0  0  0  0  0  0  0  0
    3.4985    1.2589    1.6907 H   0  0  0  0  0  0  0  0  0  0  0  0
    4.2891    1.8807    0.2403 H   0  0  0  0  0  0  0  0  0  0  0  0
    3.3446   -1.0266    0.6304 H   0  0  0  0  0  0  0  0  0  0  0  0
    3.9862   -1.3262   -1.7398 H   0  0  0  0  0  0  0  0  0  0  0  0
    4.6053    0.3283   -1.8095 H   0  0  0  0  0  0  0  0  0  0  0  0
    5.3872   -0.8681   -0.7576 H   0  0  0  0  0  0  0  0  0  0  0  0
    2.0181    0.0247   -1.4988 H   0  0  0  0  0  0  0  0  0  0  0  0
   -2.0835   -0.1711   -1.5537 H   0  0  0  0  0  0  0  0  0  0  0  0
   -3.6864   -0.4937    0.9644 H   0  0  0  0  0  0  0  0  0  0  0  0
   -2.9621    1.8802    0.5749 H   0  0  0  0  0  0  0  0  0  0  0  0
   -3.6040    1.8166   -1.0702 H   0  0  0  0  0  0  0  0  0  0  0  0
   -4.7023    1.7012    0.3175 H   0  0  0  0  0  0  0  0  0  0  0  0
   -5.6628   -0.4954   -0.5147 H   0  0  0  0  0  0  0  0  0  0  0  0
   -4.5802   -1.8420   -0.9085 H   0  0  0  0  0  0  0  0  0  0  0  0
   -4.6211   -0.4131   -1.9485 H   0  0  0  0  0  0  0  0  0  0  0  0
  1  2  1  0
  2  3  1  0
  2  4  1  0
  4  5  1  0
  5  6  2  0
  6  7  1  0
  7  8  1  0
  7  9  2  0
  9 10  1  0
 10 11  1  0
 11 12  1  0
 12 13  1  0
 12 14  1  0
 10 15  2  0
 15  5  1  0
  1 16  1  0
  1 17  1  0
  1 18  1  0
  2 19  1  0
  3 20  1  0
  3 21  1  0
  3 22  1  0
  4 23  1  0
 11 24  1  0
 12 25  1  0
 13 26  1  0
 13 27  1  0
 13 28  1  0
 14 29  1  0
 14 30  1  0
 14 31  1  0
M  END
>  <Energy>  (7) 
-236.38626268780456

>  <Real charge>  (7) 
0

>  <Mult>  (7) 
1

$$$$
mol_895 201
     RDKit          3D

 31 31  0  0  0  0  0  0  0  0999 V2000
    3.1966   -0.1557   -1.8371 C   0  0  0  0  0  0  0  0  0  0  0  0
    3.2395    0.0460   -0.3224 C   0  0  0  0  0  0  0  0  0  0  0  0
    4.2039    1.1796    0.0285 C   0  0  0  0  0  0  0  0  0  0  0  0
    1.9220    0.3992    0.1905 N   0  0  0  0  0  0  0  0  0  0  0  0
    0.9668   -0.6005    0.2665 C   0  0  0  0  0  0  0  0  0  0  0  0
    1.3217   -1.8530    0.4802 N   0  0  0  0  0  0  0  0  0  0  0  0
    0.2959   -2.6856    0.5410 C   0  0  0  0  0  0  0  0  0  0  0  0
    0.6830   -4.3280    0.8185 Cl  0  0  0  0  0  0  0  0  0  0  0  0
   -0.9926   -2.4093    0.4131 N   0  0  0  0  0  0  0  0  0  0  0  0
   -1.2335   -1.1311    0.1953 C   0  0  0  0  0  0  0  0  0  0  0  0
   -2.5720   -0.7979    0.0354 N   0  0  0  0  0  0  0  0  0  0  0  0
   -2.9799    0.5236    0.5005 C   0  0  0  0  0  0  0  0  0  0  0  0
   -4.4213    0.4423    1.0088 C   0  0  0  0  0  0  0  0  0  0  0  0
   -2.8966    1.5291   -0.6479 C   0  0  0  0  0  0  0  0  0  0  0  0
   -0.2897   -0.1987    0.1190 N   0  0  0  0  0  0  0  0  0  0  0  0
    4.1958   -0.3747   -2.2282 H   0  0  0  0  0  0  0  0  0  0  0  0
    2.5429   -0.9912   -2.1090 H   0  0  0  0  0  0  0  0  0  0  0  0
    2.8197    0.7376   -2.3477 H   0  0  0  0  0  0  0  0  0  0  0  0
    3.6177   -0.8649    0.1581 H   0  0  0  0  0  0  0  0  0  0  0  0
    4.2474    1.3298    1.1130 H   0  0  0  0  0  0  0  0  0  0  0  0
    5.2164    0.9538   -0.3222 H   0  0  0  0  0  0  0  0  0  0  0  0
    3.8896    2.1272   -0.4236 H   0  0  0  0  0  0  0  0  0  0  0  0
    1.4837    1.2103   -0.2329 H   0  0  0  0  0  0  0  0  0  0  0  0
   -3.1042   -1.5804    0.4034 H   0  0  0  0  0  0  0  0  0  0  0  0
   -2.3559    0.8640    1.3371 H   0  0  0  0  0  0  0  0  0  0  0  0
   -4.4989   -0.2634    1.8433 H   0  0  0  0  0  0  0  0  0  0  0  0
   -5.1044    0.1010    0.2228 H   0  0  0  0  0  0  0  0  0  0  0  0
   -4.7670    1.4198    1.3614 H   0  0  0  0  0  0  0  0  0  0  0  0
   -3.5185    1.2174   -1.4948 H   0  0  0  0  0  0  0  0  0  0  0  0
   -1.8716    1.6355   -1.0170 H   0  0  0  0  0  0  0  0  0  0  0  0
   -3.2366    2.5183   -0.3232 H   0  0  0  0  0  0  0  0  0  0  0  0
  1  2  1  0
  2  3  1  0
  2  4  1  0
  4  5  1  0
  5  6  2  0
  6  7  1  0
  7  8  1  0
  7  9  2  0
  9 10  1  0
 10 11  1  0
 11 12  1  0
 12 13  1  0
 12 14  1  0
 10 15  2  0
 15  5  1  0
  1 16  1  0
  1 17  1  0
  1 18  1  0
  2 19  1  0
  3 20  1  0
  3 21  1  0
  3 22  1  0
  4 23  1  0
 11 24  1  0
 12 25  1  0
 13 26  1  0
 13 27  1  0
 13 28  1  0
 14 29  1  0
 14 30  1  0
 14 31  1  0
M  END
>  <Energy>  (8) 
-236.36646083740814

>  <Real charge>  (8) 
0

>  <Mult>  (8) 
1

$$$$
mol_895 447
     RDKit          3D

 31 31  0  0  0  0  0  0  0  0999 V2000
    3.9902    0.2975   -1.2347 C   0  0  0  0  0  0  0  0  0  0  0  0
    3.1849    0.5565    0.0386 C   0  0  0  0  0  0  0  0  0  0  0  0
    3.7040    1.8214    0.7265 C   0  0  0  0  0  0  0  0  0  0  0  0
    1.7770    0.7482   -0.2929 N   0  0  0  0  0  0  0  0  0  0  0  0
    0.9661   -0.3785   -0.2658 C   0  0  0  0  0  0  0  0  0  0  0  0
    1.4509   -1.5673   -0.5686 N   0  0  0  0  0  0  0  0  0  0  0  0
    0.5487   -2.5329   -0.5130 C   0  0  0  0  0  0  0  0  0  0  0  0
    1.1097   -4.1015   -0.8987 Cl  0  0  0  0  0  0  0  0  0  0  0  0
   -0.7329   -2.4393   -0.1948 N   0  0  0  0  0  0  0  0  0  0  0  0
   -1.1091   -1.2097    0.0974 C   0  0  0  0  0  0  0  0  0  0  0  0
   -2.4393   -1.0620    0.4529 N   0  0  0  0  0  0  0  0  0  0  0  0
   -3.0940    0.1981    0.1252 C   0  0  0  0  0  0  0  0  0  0  0  0
   -4.3993    0.2741    0.9182 C   0  0  0  0  0  0  0  0  0  0  0  0
   -3.3851    0.2857   -1.3730 C   0  0  0  0  0  0  0  0  0  0  0  0
   -0.2979   -0.1569    0.0745 N   0  0  0  0  0  0  0  0  0  0  0  0
    5.0556    0.1900   -1.0051 H   0  0  0  0  0  0  0  0  0  0  0  0
    3.8783    1.1206   -1.9498 H   0  0  0  0  0  0  0  0  0  0  0  0
    3.6653   -0.6187   -1.7377 H   0  0  0  0  0  0  0  0  0  0  0  0
    3.3210   -0.2774    0.7394 H   0  0  0  0  0  0  0  0  0  0  0  0
    3.5931    2.7014    0.0828 H   0  0  0  0  0  0  0  0  0  0  0  0
    3.1483    2.0159    1.6506 H   0  0  0  0  0  0  0  0  0  0  0  0
    4.7629    1.7187    0.9858 H   0  0  0  0  0  0  0  0  0  0  0  0
    1.2871    1.4563    0.2453 H   0  0  0  0  0  0  0  0  0  0  0  0
   -2.9317   -1.9031    0.1712 H   0  0  0  0  0  0  0  0  0  0  0  0
   -2.4773    1.0530    0.4292 H   0  0  0  0  0  0  0  0  0  0  0  0
   -4.9233    1.2147    0.7189 H   0  0  0  0  0  0  0  0  0  0  0  0
   -5.0722   -0.5522    0.6622 H   0  0  0  0  0  0  0  0  0  0  0  0
   -4.2026    0.2181    1.9947 H   0  0  0  0  0  0  0  0  0  0  0  0
   -3.9986   -0.5575   -1.7099 H   0  0  0  0  0  0  0  0  0  0  0  0
   -3.9194    1.2114   -1.6113 H   0  0  0  0  0  0  0  0  0  0  0  0
   -2.4603    0.2755   -1.9594 H   0  0  0  0  0  0  0  0  0  0  0  0
  1  2  1  0
  2  3  1  0
  2  4  1  0
  4  5  1  0
  5  6  2  0
  6  7  1  0
  7  8  1  0
  7  9  2  0
  9 10  1  0
 10 11  1  0
 11 12  1  0
 12 13  1  0
 12 14  1  0
 10 15  2  0
 15  5  1  0
  1 16  1  0
  1 17  1  0
  1 18  1  0
  2 19  1  0
  3 20  1  0
  3 21  1  0
  3 22  1  0
  4 23  1  0
 11 24  1  0
 12 25  1  0
 13 26  1  0
 13 27  1  0
 13 28  1  0
 14 29  1  0
 14 30  1  0
 14 31  1  0
M  END
>  <Energy>  (9) 
-236.36480620852498

>  <Real charge>  (9) 
0

>  <Mult>  (9) 
1

$$$$
