mol_523 9
     RDKit          3D

 12 12  0  0  0  0  0  0  0  0999 V2000
   -1.4974    2.7240    0.0629 Cl  0  0  0  0  0  0  0  0  0  0  0  0
   -0.6687    1.2165    0.0281 C   0  0  0  0  0  0  0  0  0  0  0  0
   -1.3981    0.0292    0.0164 C   0  0  0  0  0  0  0  0  0  0  0  0
   -0.7193   -1.1875   -0.0119 C   0  0  0  0  0  0  0  0  0  0  0  0
   -1.6108   -2.6591   -0.0265 Cl  0  0  0  0  0  0  0  0  0  0  0  0
    0.6736   -1.2253   -0.0283 C   0  0  0  0  0  0  0  0  0  0  0  0
    1.3880   -0.0290   -0.0163 C   0  0  0  0  0  0  0  0  0  0  0  0
    3.1082   -0.0649   -0.0364 Cl  0  0  0  0  0  0  0  0  0  0  0  0
    0.7246    1.1961    0.0119 C   0  0  0  0  0  0  0  0  0  0  0  0
   -2.4846    0.0518    0.0291 H   0  0  0  0  0  0  0  0  0  0  0  0
    1.1970   -2.1775   -0.0503 H   0  0  0  0  0  0  0  0  0  0  0  0
    1.2876    2.1256    0.0212 H   0  0  0  0  0  0  0  0  0  0  0  0
  1  2  1  0
  2  3  2  0
  3  4  1  0
  4  5  1  0
  4  6  2  0
  6  7  1  0
  7  8  1  0
  7  9  2  0
  9  2  1  0
  3 10  1  0
  6 11  1  0
  9 12  1  0
M  END
>  <Energy>  (1) 
-7.7584363474839275

>  <Real charge>  (1) 
0

>  <Mult>  (1) 
1

$$$$
