mol_1030 391
     RDKit          3D

 24 23  0  0  0  0  0  0  0  0999 V2000
   -0.4207   -1.2035   -1.7527 C   0  0  0  0  0  0  0  0  0  0  0  0
   -0.3759   -1.2241   -0.2321 C   0  0  0  0  0  0  0  0  0  0  0  0
    0.0457    0.1033    0.4356 C   0  0  0  0  0  0  0  0  0  0  0  0
    0.0205   -0.1383    1.8509 O   0  0  0  0  0  0  0  0  0  0  0  0
    1.4803    0.5469    0.0556 C   0  0  0  0  0  0  0  0  0  0  0  0
    2.5682   -0.4786    0.3554 C   0  0  0  0  0  0  0  0  0  0  0  0
   -0.9273    1.2708    0.1363 C   0  0  0  0  0  0  0  0  0  0  0  0
   -2.3792    1.0091    0.5213 C   0  0  0  0  0  0  0  0  0  0  0  0
    0.5600   -0.9799   -2.1819 H   0  0  0  0  0  0  0  0  0  0  0  0
   -0.7284   -2.1851   -2.1281 H   0  0  0  0  0  0  0  0  0  0  0  0
   -1.1400   -0.4687   -2.1249 H   0  0  0  0  0  0  0  0  0  0  0  0
   -1.3576   -1.5332    0.1486 H   0  0  0  0  0  0  0  0  0  0  0  0
    0.2943   -2.0299    0.0932 H   0  0  0  0  0  0  0  0  0  0  0  0
    0.2825    0.6830    2.3008 H   0  0  0  0  0  0  0  0  0  0  0  0
    1.7323    1.4538    0.6212 H   0  0  0  0  0  0  0  0  0  0  0  0
    1.5283    0.8174   -1.0057 H   0  0  0  0  0  0  0  0  0  0  0  0
    2.5507   -0.7865    1.4052 H   0  0  0  0  0  0  0  0  0  0  0  0
    3.5531   -0.0465    0.1499 H   0  0  0  0  0  0  0  0  0  0  0  0
    2.4649   -1.3688   -0.2714 H   0  0  0  0  0  0  0  0  0  0  0  0
   -0.8834    1.5426   -0.9248 H   0  0  0  0  0  0  0  0  0  0  0  0
   -0.6026    2.1559    0.6995 H   0  0  0  0  0  0  0  0  0  0  0  0
   -2.9735    1.9161    0.3687 H   0  0  0  0  0  0  0  0  0  0  0  0
   -2.8223    0.2210   -0.0941 H   0  0  0  0  0  0  0  0  0  0  0  0
   -2.4698    0.7232    1.5735 H   0  0  0  0  0  0  0  0  0  0  0  0
  1  2  1  0
  2  3  1  0
  3  4  1  0
  3  5  1  0
  5  6  1  0
  3  7  1  0
  7  8  1  0
  1  9  1  0
  1 10  1  0
  1 11  1  0
  2 12  1  0
  2 13  1  0
  4 14  1  0
  5 15  1  0
  5 16  1  0
  6 17  1  0
  6 18  1  0
  6 19  1  0
  7 20  1  0
  7 21  1  0
  8 22  1  0
  8 23  1  0
  8 24  1  0
M  END
>  <Energy>  (1) 
10.873821116735906

>  <Real charge>  (1) 
0

>  <Mult>  (1) 
1

$$$$
mol_1030 375
     RDKit          3D

 24 23  0  0  0  0  0  0  0  0999 V2000
    2.5685   -0.7207    0.1361 C   0  0  0  0  0  0  0  0  0  0  0  0
    1.0965   -1.1185    0.1884 C   0  0  0  0  0  0  0  0  0  0  0  0
    0.1199   -0.0926   -0.4400 C   0  0  0  0  0  0  0  0  0  0  0  0
    0.5444    0.1562   -1.7890 O   0  0  0  0  0  0  0  0  0  0  0  0
   -1.3058   -0.6900   -0.5271 C   0  0  0  0  0  0  0  0  0  0  0  0
   -1.9871   -0.9633    0.8060 C   0  0  0  0  0  0  0  0  0  0  0  0
    0.1728    1.2583    0.3092 C   0  0  0  0  0  0  0  0  0  0  0  0
   -0.7854    2.3200   -0.2229 C   0  0  0  0  0  0  0  0  0  0  0  0
    2.8941   -0.5155   -0.8881 H   0  0  0  0  0  0  0  0  0  0  0  0
    2.7687    0.1620    0.7498 H   0  0  0  0  0  0  0  0  0  0  0  0
    3.1870   -1.5364    0.5251 H   0  0  0  0  0  0  0  0  0  0  0  0
    0.8275   -1.3091    1.2335 H   0  0  0  0  0  0  0  0  0  0  0  0
    1.0032   -2.0728   -0.3461 H   0  0  0  0  0  0  0  0  0  0  0  0
    0.5483   -0.6927   -2.2636 H   0  0  0  0  0  0  0  0  0  0  0  0
   -1.9460   -0.0337   -1.1301 H   0  0  0  0  0  0  0  0  0  0  0  0
   -1.2666   -1.6281   -1.0974 H   0  0  0  0  0  0  0  0  0  0  0  0
   -1.4312   -1.6934    1.4007 H   0  0  0  0  0  0  0  0  0  0  0  0
   -2.9874   -1.3743    0.6334 H   0  0  0  0  0  0  0  0  0  0  0  0
   -2.1039   -0.0503    1.3962 H   0  0  0  0  0  0  0  0  0  0  0  0
   -0.0170    1.1097    1.3785 H   0  0  0  0  0  0  0  0  0  0  0  0
    1.1801    1.6828    0.2202 H   0  0  0  0  0  0  0  0  0  0  0  0
   -0.6356    2.4937   -1.2928 H   0  0  0  0  0  0  0  0  0  0  0  0
   -1.8297    2.0403   -0.0583 H   0  0  0  0  0  0  0  0  0  0  0  0
   -0.6151    3.2685    0.2973 H   0  0  0  0  0  0  0  0  0  0  0  0
  1  2  1  0
  2  3  1  0
  3  4  1  0
  3  5  1  0
  5  6  1  0
  3  7  1  0
  7  8  1  0
  1  9  1  0
  1 10  1  0
  1 11  1  0
  2 12  1  0
  2 13  1  0
  4 14  1  0
  5 15  1  0
  5 16  1  0
  6 17  1  0
  6 18  1  0
  6 19  1  0
  7 20  1  0
  7 21  1  0
  8 22  1  0
  8 23  1  0
  8 24  1  0
M  END
>  <Energy>  (2) 
11.20289389131359

>  <Real charge>  (2) 
0

>  <Mult>  (2) 
1

$$$$
mol_1030 377
     RDKit          3D

 24 23  0  0  0  0  0  0  0  0999 V2000
    2.4984   -0.8522   -0.4066 C   0  0  0  0  0  0  0  0  0  0  0  0
    1.1506   -1.1335    0.2493 C   0  0  0  0  0  0  0  0  0  0  0  0
   -0.0410   -0.3416   -0.3442 C   0  0  0  0  0  0  0  0  0  0  0  0
   -0.1558   -0.7456   -1.7172 O   0  0  0  0  0  0  0  0  0  0  0  0
   -1.3298   -0.7870    0.3915 C   0  0  0  0  0  0  0  0  0  0  0  0
   -2.6174   -0.1214   -0.0819 C   0  0  0  0  0  0  0  0  0  0  0  0
    0.1798    1.1883   -0.3266 C   0  0  0  0  0  0  0  0  0  0  0  0
    0.3536    1.8038    1.0539 C   0  0  0  0  0  0  0  0  0  0  0  0
    3.2593   -1.5236    0.0052 H   0  0  0  0  0  0  0  0  0  0  0  0
    2.4603   -1.0137   -1.4880 H   0  0  0  0  0  0  0  0  0  0  0  0
    2.8309    0.1725   -0.2183 H   0  0  0  0  0  0  0  0  0  0  0  0
    1.2347   -0.9492    1.3267 H   0  0  0  0  0  0  0  0  0  0  0  0
    0.9555   -2.2075    0.1285 H   0  0  0  0  0  0  0  0  0  0  0  0
   -0.8202   -0.1822   -2.1478 H   0  0  0  0  0  0  0  0  0  0  0  0
   -1.4596   -1.8684    0.2518 H   0  0  0  0  0  0  0  0  0  0  0  0
   -1.2260   -0.6199    1.4702 H   0  0  0  0  0  0  0  0  0  0  0  0
   -2.6119    0.9540    0.1160 H   0  0  0  0  0  0  0  0  0  0  0  0
   -2.7847   -0.2801   -1.1510 H   0  0  0  0  0  0  0  0  0  0  0  0
   -3.4726   -0.5475    0.4535 H   0  0  0  0  0  0  0  0  0  0  0  0
    1.0508    1.4421   -0.9437 H   0  0  0  0  0  0  0  0  0  0  0  0
   -0.6544    1.6887   -0.8343 H   0  0  0  0  0  0  0  0  0  0  0  0
   -0.5265    1.6399    1.6819 H   0  0  0  0  0  0  0  0  0  0  0  0
    0.4968    2.8855    0.9625 H   0  0  0  0  0  0  0  0  0  0  0  0
    1.2292    1.3985    1.5687 H   0  0  0  0  0  0  0  0  0  0  0  0
  1  2  1  0
  2  3  1  0
  3  4  1  0
  3  5  1  0
  5  6  1  0
  3  7  1  0
  7  8  1  0
  1  9  1  0
  1 10  1  0
  1 11  1  0
  2 12  1  0
  2 13  1  0
  4 14  1  0
  5 15  1  0
  5 16  1  0
  6 17  1  0
  6 18  1  0
  6 19  1  0
  7 20  1  0
  7 21  1  0
  8 22  1  0
  8 23  1  0
  8 24  1  0
M  END
>  <Energy>  (3) 
11.261906322561247

>  <Real charge>  (3) 
0

>  <Mult>  (3) 
1

$$$$
mol_1030 426
     RDKit          3D

 24 23  0  0  0  0  0  0  0  0999 V2000
   -1.7197   -2.0354    0.4963 C   0  0  0  0  0  0  0  0  0  0  0  0
   -0.2945   -1.4972    0.5868 C   0  0  0  0  0  0  0  0  0  0  0  0
   -0.1640    0.0396    0.4371 C   0  0  0  0  0  0  0  0  0  0  0  0
   -1.0006    0.6252    1.4464 O   0  0  0  0  0  0  0  0  0  0  0  0
   -0.6743    0.5049   -0.9473 C   0  0  0  0  0  0  0  0  0  0  0  0
   -0.5191    1.9960   -1.2314 C   0  0  0  0  0  0  0  0  0  0  0  0
    1.2878    0.4817    0.7449 C   0  0  0  0  0  0  0  0  0  0  0  0
    2.3474   -0.0151   -0.2282 C   0  0  0  0  0  0  0  0  0  0  0  0
   -2.1432   -1.8860   -0.5009 H   0  0  0  0  0  0  0  0  0  0  0  0
   -2.3777   -1.5605    1.2301 H   0  0  0  0  0  0  0  0  0  0  0  0
   -1.7224   -3.1124    0.6945 H   0  0  0  0  0  0  0  0  0  0  0  0
    0.3132   -2.0072   -0.1691 H   0  0  0  0  0  0  0  0  0  0  0  0
    0.0976   -1.7929    1.5687 H   0  0  0  0  0  0  0  0  0  0  0  0
   -0.8444    1.5842    1.4560 H   0  0  0  0  0  0  0  0  0  0  0  0
   -1.7459    0.2865   -1.0299 H   0  0  0  0  0  0  0  0  0  0  0  0
   -0.1713   -0.0578   -1.7425 H   0  0  0  0  0  0  0  0  0  0  0  0
    0.5322    2.2942   -1.2689 H   0  0  0  0  0  0  0  0  0  0  0  0
   -1.0284    2.6048   -0.4788 H   0  0  0  0  0  0  0  0  0  0  0  0
   -0.9610    2.2350   -2.2046 H   0  0  0  0  0  0  0  0  0  0  0  0
    1.3398    1.5765    0.7989 H   0  0  0  0  0  0  0  0  0  0  0  0
    1.5552    0.1477    1.7567 H   0  0  0  0  0  0  0  0  0  0  0  0
    2.4125   -1.1066   -0.2310 H   0  0  0  0  0  0  0  0  0  0  0  0
    2.1514    0.3244   -1.2489 H   0  0  0  0  0  0  0  0  0  0  0  0
    3.3295    0.3706    0.0651 H   0  0  0  0  0  0  0  0  0  0  0  0
  1  2  1  0
  2  3  1  0
  3  4  1  0
  3  5  1  0
  5  6  1  0
  3  7  1  0
  7  8  1  0
  1  9  1  0
  1 10  1  0
  1 11  1  0
  2 12  1  0
  2 13  1  0
  4 14  1  0
  5 15  1  0
  5 16  1  0
  6 17  1  0
  6 18  1  0
  6 19  1  0
  7 20  1  0
  7 21  1  0
  8 22  1  0
  8 23  1  0
  8 24  1  0
M  END
>  <Energy>  (4) 
11.600796988233483

>  <Real charge>  (4) 
0

>  <Mult>  (4) 
1

$$$$
