mol_301 96
     RDKit          3D

 34 36  0  0  0  0  0  0  0  0999 V2000
   -2.1637    1.7875   -1.9657 C   0  0  0  0  0  0  0  0  0  0  0  0
   -1.2875    2.0198   -0.7359 C   0  0  0  0  0  0  0  0  0  0  0  0
   -0.5557    0.7968   -0.3576 N   0  0  0  0  0  0  0  0  0  0  0  0
    0.7119    0.9645    0.2550 C   0  0  0  0  0  0  0  0  0  0  0  0
    1.0244    2.1388    0.9765 C   0  0  0  0  0  0  0  0  0  0  0  0
    2.2752    2.3355    1.5615 C   0  0  0  0  0  0  0  0  0  0  0  0
    3.2474    1.3572    1.4421 C   0  0  0  0  0  0  0  0  0  0  0  0
    2.9609    0.1818    0.7479 C   0  0  0  0  0  0  0  0  0  0  0  0
    1.6976   -0.0461    0.1607 C   0  0  0  0  0  0  0  0  0  0  0  0
    1.4812   -1.2634   -0.5655 N   0  0  0  0  0  0  0  0  0  0  0  0
    2.6375   -1.9017   -1.1886 C   0  0  0  0  0  0  0  0  0  0  0  0
    0.2753   -1.9733   -0.6473 C   0  0  0  0  0  0  0  0  0  0  0  0
    0.1940   -3.0438   -1.2616 O   0  0  0  0  0  0  0  0  0  0  0  0
   -0.9444   -1.5605    0.0744 C   0  0  0  0  0  0  0  0  0  0  0  0
   -1.7692   -2.5706    0.5966 C   0  0  0  0  0  0  0  0  0  0  0  0
   -2.9868   -2.2436    1.1765 C   0  0  0  0  0  0  0  0  0  0  0  0
   -3.3492   -0.9133    1.1936 C   0  0  0  0  0  0  0  0  0  0  0  0
   -2.5841    0.0782    0.6870 N   0  0  0  0  0  0  0  0  0  0  0  0
   -1.3787   -0.2404    0.1333 C   0  0  0  0  0  0  0  0  0  0  0  0
   -2.9765    1.0823   -1.7691 H   0  0  0  0  0  0  0  0  0  0  0  0
   -2.6147    2.7315   -2.2883 H   0  0  0  0  0  0  0  0  0  0  0  0
   -1.5703    1.3918   -2.7970 H   0  0  0  0  0  0  0  0  0  0  0  0
   -1.8807    2.4235    0.0946 H   0  0  0  0  0  0  0  0  0  0  0  0
   -0.5781    2.8049   -1.0303 H   0  0  0  0  0  0  0  0  0  0  0  0
    0.2801    2.9186    1.1155 H   0  0  0  0  0  0  0  0  0  0  0  0
    2.4811    3.2493    2.1125 H   0  0  0  0  0  0  0  0  0  0  0  0
    4.2247    1.4979    1.8963 H   0  0  0  0  0  0  0  0  0  0  0  0
    3.7426   -0.5718    0.7044 H   0  0  0  0  0  0  0  0  0  0  0  0
    3.3357   -1.1503   -1.5717 H   0  0  0  0  0  0  0  0  0  0  0  0
    2.3369   -2.5215   -2.0393 H   0  0  0  0  0  0  0  0  0  0  0  0
    3.1292   -2.5455   -0.4525 H   0  0  0  0  0  0  0  0  0  0  0  0
   -1.4637   -3.6127    0.5320 H   0  0  0  0  0  0  0  0  0  0  0  0
   -3.6383   -3.0072    1.5854 H   0  0  0  0  0  0  0  0  0  0  0  0
   -4.2941   -0.5944    1.6243 H   0  0  0  0  0  0  0  0  0  0  0  0
  1  2  1  0
  2  3  1  0
  3  4  1  0
  4  5  2  0
  5  6  1  0
  6  7  2  0
  7  8  1  0
  8  9  2  0
  9 10  1  0
 10 11  1  0
 10 12  1  0
 12 13  2  0
 12 14  1  0
 14 15  2  0
 15 16  1  0
 16 17  2  0
 17 18  1  0
 18 19  2  0
  9  4  1  0
 19  3  1  0
 19 14  1  0
  1 20  1  0
  1 21  1  0
  1 22  1  0
  2 23  1  0
  2 24  1  0
  5 25  1  0
  6 26  1  0
  7 27  1  0
  8 28  1  0
 11 29  1  0
 11 30  1  0
 11 31  1  0
 15 32  1  0
 16 33  1  0
 17 34  1  0
M  END
>  <Energy>  (1) 
64.45433989316366

>  <Real charge>  (1) 
0

>  <Mult>  (1) 
1

$$$$
mol_301 23
     RDKit          3D

 34 36  0  0  0  0  0  0  0  0999 V2000
   -2.8863   -0.9837   -1.3864 C   0  0  0  0  0  0  0  0  0  0  0  0
   -2.4959    0.0837   -0.3667 C   0  0  0  0  0  0  0  0  0  0  0  0
   -1.0319    0.1710   -0.2104 N   0  0  0  0  0  0  0  0  0  0  0  0
   -0.3203   -0.9353    0.3111 C   0  0  0  0  0  0  0  0  0  0  0  0
   -0.9434   -1.8767    1.1600 C   0  0  0  0  0  0  0  0  0  0  0  0
   -0.2636   -2.9879    1.6597 C   0  0  0  0  0  0  0  0  0  0  0  0
    1.0646   -3.1855    1.3247 C   0  0  0  0  0  0  0  0  0  0  0  0
    1.7098   -2.2654    0.4994 C   0  0  0  0  0  0  0  0  0  0  0  0
    1.0462   -1.1262   -0.0058 C   0  0  0  0  0  0  0  0  0  0  0  0
    1.7632   -0.2390   -0.8747 N   0  0  0  0  0  0  0  0  0  0  0  0
    2.8458   -0.7980   -1.6797 C   0  0  0  0  0  0  0  0  0  0  0  0
    1.6050    1.1514   -0.9474 C   0  0  0  0  0  0  0  0  0  0  0  0
    2.3071    1.8456   -1.6924 O   0  0  0  0  0  0  0  0  0  0  0  0
    0.6761    1.8950   -0.0744 C   0  0  0  0  0  0  0  0  0  0  0  0
    1.0733    3.1658    0.3733 C   0  0  0  0  0  0  0  0  0  0  0  0
    0.1888    3.9577    1.0923 C   0  0  0  0  0  0  0  0  0  0  0  0
   -1.0764    3.4584    1.3195 C   0  0  0  0  0  0  0  0  0  0  0  0
   -1.4922    2.2469    0.8896 N   0  0  0  0  0  0  0  0  0  0  0  0
   -0.6162    1.4598    0.1997 C   0  0  0  0  0  0  0  0  0  0  0  0
   -3.9664   -0.9553   -1.5632 H   0  0  0  0  0  0  0  0  0  0  0  0
   -2.6332   -1.9931   -1.0508 H   0  0  0  0  0  0  0  0  0  0  0  0
   -2.3805   -0.8118   -2.3426 H   0  0  0  0  0  0  0  0  0  0  0  0
   -3.0085   -0.0775    0.5891 H   0  0  0  0  0  0  0  0  0  0  0  0
   -2.8881    1.0267   -0.7734 H   0  0  0  0  0  0  0  0  0  0  0  0
   -1.9782   -1.7520    1.4652 H   0  0  0  0  0  0  0  0  0  0  0  0
   -0.7751   -3.6907    2.3122 H   0  0  0  0  0  0  0  0  0  0  0  0
    1.6052   -4.0458    1.7103 H   0  0  0  0  0  0  0  0  0  0  0  0
    2.7604   -2.4422    0.2851 H   0  0  0  0  0  0  0  0  0  0  0  0
    3.0164   -0.2013   -2.5815 H   0  0  0  0  0  0  0  0  0  0  0  0
    3.7672   -0.7968   -1.0887 H   0  0  0  0  0  0  0  0  0  0  0  0
    2.6002   -1.8127   -2.0096 H   0  0  0  0  0  0  0  0  0  0  0  0
    2.0685    3.5397    0.1423 H   0  0  0  0  0  0  0  0  0  0  0  0
    0.4751    4.9410    1.4471 H   0  0  0  0  0  0  0  0  0  0  0  0
   -1.8171    4.0343    1.8670 H   0  0  0  0  0  0  0  0  0  0  0  0
  1  2  1  0
  2  3  1  0
  3  4  1  0
  4  5  2  0
  5  6  1  0
  6  7  2  0
  7  8  1  0
  8  9  2  0
  9 10  1  0
 10 11  1  0
 10 12  1  0
 12 13  2  0
 12 14  1  0
 14 15  2  0
 15 16  1  0
 16 17  2  0
 17 18  1  0
 18 19  2  0
  9  4  1  0
 19  3  1  0
 19 14  1  0
  1 20  1  0
  1 21  1  0
  1 22  1  0
  2 23  1  0
  2 24  1  0
  5 25  1  0
  6 26  1  0
  7 27  1  0
  8 28  1  0
 11 29  1  0
 11 30  1  0
 11 31  1  0
 15 32  1  0
 16 33  1  0
 17 34  1  0
M  END
>  <Energy>  (2) 
64.79298935088744

>  <Real charge>  (2) 
0

>  <Mult>  (2) 
1

$$$$
