mol_922 224
     RDKit          3D

 19 18  0  0  0  0  0  0  0  0999 V2000
    2.4234    1.0693    1.0398 C   0  0  0  0  0  0  0  0  0  0  0  0
    0.9444    0.8358    0.7731 C   0  0  0  0  0  0  0  0  0  0  0  0
    0.6489   -0.6445    0.5276 C   0  0  0  0  0  0  0  0  0  0  0  0
   -0.8415   -0.9378    0.3260 C   0  0  0  0  0  0  0  0  0  0  0  0
   -1.0019   -2.3490    0.2138 O   0  0  0  0  0  0  0  0  0  0  0  0
   -1.4010   -0.3303   -0.9268 C   0  0  0  0  0  0  0  0  0  0  0  0
   -2.4275    0.5298   -0.9623 C   0  0  0  0  0  0  0  0  0  0  0  0
    2.6140    2.1331    1.2126 H   0  0  0  0  0  0  0  0  0  0  0  0
    3.0309    0.7492    0.1872 H   0  0  0  0  0  0  0  0  0  0  0  0
    2.7547    0.5170    1.9250 H   0  0  0  0  0  0  0  0  0  0  0  0
    0.3643    1.1929    1.6319 H   0  0  0  0  0  0  0  0  0  0  0  0
    0.6441    1.4338   -0.0945 H   0  0  0  0  0  0  0  0  0  0  0  0
    1.2206   -1.0021   -0.3394 H   0  0  0  0  0  0  0  0  0  0  0  0
    1.0109   -1.2372    1.3783 H   0  0  0  0  0  0  0  0  0  0  0  0
   -1.4020   -0.6135    1.2106 H   0  0  0  0  0  0  0  0  0  0  0  0
   -1.9404   -2.5074    0.0137 H   0  0  0  0  0  0  0  0  0  0  0  0
   -0.9269   -0.6258   -1.8609 H   0  0  0  0  0  0  0  0  0  0  0  0
   -2.9333    0.8561   -0.0588 H   0  0  0  0  0  0  0  0  0  0  0  0
   -2.7816    0.9306   -1.9075 H   0  0  0  0  0  0  0  0  0  0  0  0
  1  2  1  0
  2  3  1  0
  3  4  1  0
  4  5  1  0
  4  6  1  0
  6  7  2  3
  1  8  1  0
  1  9  1  0
  1 10  1  0
  2 11  1  0
  2 12  1  0
  3 13  1  0
  3 14  1  0
  4 15  1  0
  5 16  1  0
  6 17  1  0
  7 18  1  0
  7 19  1  0
M  END
>  <Energy>  (1) 
-1.1766353623875951

>  <Real charge>  (1) 
0

>  <Mult>  (1) 
1

$$$$
mol_922 228
     RDKit          3D

 19 18  0  0  0  0  0  0  0  0999 V2000
   -2.8782    0.5807   -0.0049 C   0  0  0  0  0  0  0  0  0  0  0  0
   -1.6700   -0.2840   -0.3296 C   0  0  0  0  0  0  0  0  0  0  0  0
   -0.3797    0.3250    0.2279 C   0  0  0  0  0  0  0  0  0  0  0  0
    0.8504   -0.5196   -0.1196 C   0  0  0  0  0  0  0  0  0  0  0  0
    0.7407   -1.7936    0.5037 O   0  0  0  0  0  0  0  0  0  0  0  0
    2.1122    0.1160    0.3861 C   0  0  0  0  0  0  0  0  0  0  0  0
    3.1409    0.4857   -0.3883 C   0  0  0  0  0  0  0  0  0  0  0  0
   -3.7880    0.1291   -0.4126 H   0  0  0  0  0  0  0  0  0  0  0  0
   -3.0062    0.6853    1.0772 H   0  0  0  0  0  0  0  0  0  0  0  0
   -2.7725    1.5809   -0.4371 H   0  0  0  0  0  0  0  0  0  0  0  0
   -1.8269   -1.2855    0.0869 H   0  0  0  0  0  0  0  0  0  0  0  0
   -1.5891   -0.3932   -1.4173 H   0  0  0  0  0  0  0  0  0  0  0  0
   -0.2564    1.3408   -0.1686 H   0  0  0  0  0  0  0  0  0  0  0  0
   -0.4780    0.4079    1.3184 H   0  0  0  0  0  0  0  0  0  0  0  0
    0.8973   -0.6792   -1.2032 H   0  0  0  0  0  0  0  0  0  0  0  0
    1.5752   -2.2617    0.3296 H   0  0  0  0  0  0  0  0  0  0  0  0
    2.1766    0.2758    1.4609 H   0  0  0  0  0  0  0  0  0  0  0  0
    3.1261    0.3487   -1.4652 H   0  0  0  0  0  0  0  0  0  0  0  0
    4.0258    0.9409    0.0466 H   0  0  0  0  0  0  0  0  0  0  0  0
  1  2  1  0
  2  3  1  0
  3  4  1  0
  4  5  1  0
  4  6  1  0
  6  7  2  3
  1  8  1  0
  1  9  1  0
  1 10  1  0
  2 11  1  0
  2 12  1  0
  3 13  1  0
  3 14  1  0
  4 15  1  0
  5 16  1  0
  6 17  1  0
  7 18  1  0
  7 19  1  0
M  END
>  <Energy>  (2) 
-1.0329736224239823

>  <Real charge>  (2) 
0

>  <Mult>  (2) 
1

$$$$
mol_922 289
     RDKit          3D

 19 18  0  0  0  0  0  0  0  0999 V2000
   -2.7711   -0.2352    0.0363 C   0  0  0  0  0  0  0  0  0  0  0  0
   -1.5560    0.1917   -0.7725 C   0  0  0  0  0  0  0  0  0  0  0  0
   -0.2589   -0.0054    0.0197 C   0  0  0  0  0  0  0  0  0  0  0  0
    0.9741    0.4571   -0.7704 C   0  0  0  0  0  0  0  0  0  0  0  0
    1.0927   -0.3187   -1.9598 O   0  0  0  0  0  0  0  0  0  0  0  0
    2.2978    0.3587   -0.0627 C   0  0  0  0  0  0  0  0  0  0  0  0
    2.5434   -0.1220    1.1639 C   0  0  0  0  0  0  0  0  0  0  0  0
   -3.6856   -0.0858   -0.5463 H   0  0  0  0  0  0  0  0  0  0  0  0
   -2.7098   -1.2941    0.3071 H   0  0  0  0  0  0  0  0  0  0  0  0
   -2.8555    0.3511    0.9569 H   0  0  0  0  0  0  0  0  0  0  0  0
   -1.5251   -0.3897   -1.7010 H   0  0  0  0  0  0  0  0  0  0  0  0
   -1.6635    1.2461   -1.0522 H   0  0  0  0  0  0  0  0  0  0  0  0
   -0.3265    0.5510    0.9627 H   0  0  0  0  0  0  0  0  0  0  0  0
   -0.1656   -1.0708    0.2668 H   0  0  0  0  0  0  0  0  0  0  0  0
    0.8315    1.5001   -1.0759 H   0  0  0  0  0  0  0  0  0  0  0  0
    1.3157   -1.2240   -1.6829 H   0  0  0  0  0  0  0  0  0  0  0  0
    3.1430    0.7352   -0.6386 H   0  0  0  0  0  0  0  0  0  0  0  0
    3.5562   -0.1311    1.5571 H   0  0  0  0  0  0  0  0  0  0  0  0
    1.7630   -0.5142    1.8072 H   0  0  0  0  0  0  0  0  0  0  0  0
  1  2  1  0
  2  3  1  0
  3  4  1  0
  4  5  1  0
  4  6  1  0
  6  7  2  3
  1  8  1  0
  1  9  1  0
  1 10  1  0
  2 11  1  0
  2 12  1  0
  3 13  1  0
  3 14  1  0
  4 15  1  0
  5 16  1  0
  6 17  1  0
  7 18  1  0
  7 19  1  0
M  END
>  <Energy>  (3) 
-0.6817900104827732

>  <Real charge>  (3) 
0

>  <Mult>  (3) 
1

$$$$
mol_922 322
     RDKit          3D

 19 18  0  0  0  0  0  0  0  0999 V2000
   -2.9273    0.1191    0.1190 C   0  0  0  0  0  0  0  0  0  0  0  0
   -1.6177   -0.6163   -0.1204 C   0  0  0  0  0  0  0  0  0  0  0  0
   -0.4229    0.3417   -0.0822 C   0  0  0  0  0  0  0  0  0  0  0  0
    0.9022   -0.3773   -0.3579 C   0  0  0  0  0  0  0  0  0  0  0  0
    1.1288   -1.3524    0.6529 O   0  0  0  0  0  0  0  0  0  0  0  0
    2.0473    0.6005   -0.4175 C   0  0  0  0  0  0  0  0  0  0  0  0
    3.0370    0.7382    0.4767 C   0  0  0  0  0  0  0  0  0  0  0  0
   -3.7670   -0.5821    0.0868 H   0  0  0  0  0  0  0  0  0  0  0  0
   -2.9295    0.6072    1.0988 H   0  0  0  0  0  0  0  0  0  0  0  0
   -3.0938    0.8836   -0.6466 H   0  0  0  0  0  0  0  0  0  0  0  0
   -1.5035   -1.3957    0.6415 H   0  0  0  0  0  0  0  0  0  0  0  0
   -1.6605   -1.1172   -1.0945 H   0  0  0  0  0  0  0  0  0  0  0  0
   -0.3875    0.8136    0.9087 H   0  0  0  0  0  0  0  0  0  0  0  0
   -0.5743    1.1401   -0.8196 H   0  0  0  0  0  0  0  0  0  0  0  0
    0.8448   -0.9061   -1.3165 H   0  0  0  0  0  0  0  0  0  0  0  0
    1.9779   -1.7757    0.4415 H   0  0  0  0  0  0  0  0  0  0  0  0
    2.0482    1.2590   -1.2848 H   0  0  0  0  0  0  0  0  0  0  0  0
    3.8127    1.4846    0.3357 H   0  0  0  0  0  0  0  0  0  0  0  0
    3.0850    0.1350    1.3783 H   0  0  0  0  0  0  0  0  0  0  0  0
  1  2  1  0
  2  3  1  0
  3  4  1  0
  4  5  1  0
  4  6  1  0
  6  7  2  3
  1  8  1  0
  1  9  1  0
  1 10  1  0
  2 11  1  0
  2 12  1  0
  3 13  1  0
  3 14  1  0
  4 15  1  0
  5 16  1  0
  6 17  1  0
  7 18  1  0
  7 19  1  0
M  END
>  <Energy>  (4) 
-0.6490936870487602

>  <Real charge>  (4) 
0

>  <Mult>  (4) 
1

$$$$
mol_922 245
     RDKit          3D

 19 18  0  0  0  0  0  0  0  0999 V2000
   -1.3125    1.7785   -0.0135 C   0  0  0  0  0  0  0  0  0  0  0  0
   -1.5019    0.3737    0.5373 C   0  0  0  0  0  0  0  0  0  0  0  0
   -0.9982   -0.7230   -0.4044 C   0  0  0  0  0  0  0  0  0  0  0  0
    0.5027   -0.6860   -0.7135 C   0  0  0  0  0  0  0  0  0  0  0  0
    0.7912   -1.7563   -1.6101 O   0  0  0  0  0  0  0  0  0  0  0  0
    1.3618   -0.8866    0.5001 C   0  0  0  0  0  0  0  0  0  0  0  0
    2.2868   -0.0178    0.9294 C   0  0  0  0  0  0  0  0  0  0  0  0
   -1.7794    2.5096    0.6544 H   0  0  0  0  0  0  0  0  0  0  0  0
   -0.2532    2.0376   -0.0983 H   0  0  0  0  0  0  0  0  0  0  0  0
   -1.7742    1.8790   -1.0009 H   0  0  0  0  0  0  0  0  0  0  0  0
   -1.0117    0.2947    1.5140 H   0  0  0  0  0  0  0  0  0  0  0  0
   -2.5721    0.2112    0.7132 H   0  0  0  0  0  0  0  0  0  0  0  0
   -1.5545   -0.6726   -1.3500 H   0  0  0  0  0  0  0  0  0  0  0  0
   -1.2571   -1.7010    0.0239 H   0  0  0  0  0  0  0  0  0  0  0  0
    0.7567    0.2441   -1.2333 H   0  0  0  0  0  0  0  0  0  0  0  0
    1.7559   -1.7637   -1.7334 H   0  0  0  0  0  0  0  0  0  0  0  0
    1.2086   -1.8112    1.0536 H   0  0  0  0  0  0  0  0  0  0  0  0
    2.8743   -0.2284    1.8181 H   0  0  0  0  0  0  0  0  0  0  0  0
    2.4768    0.9183    0.4134 H   0  0  0  0  0  0  0  0  0  0  0  0
  1  2  1  0
  2  3  1  0
  3  4  1  0
  4  5  1  0
  4  6  1  0
  6  7  2  3
  1  8  1  0
  1  9  1  0
  1 10  1  0
  2 11  1  0
  2 12  1  0
  3 13  1  0
  3 14  1  0
  4 15  1  0
  5 16  1  0
  6 17  1  0
  7 18  1  0
  7 19  1  0
M  END
>  <Energy>  (5) 
-0.6254251219371616

>  <Real charge>  (5) 
0

>  <Mult>  (5) 
1

$$$$
mol_922 300
     RDKit          3D

 19 18  0  0  0  0  0  0  0  0999 V2000
   -2.6614    0.8514    0.3940 C   0  0  0  0  0  0  0  0  0  0  0  0
   -1.3910    0.0350    0.5770 C   0  0  0  0  0  0  0  0  0  0  0  0
   -0.5215    0.0675   -0.6809 C   0  0  0  0  0  0  0  0  0  0  0  0
    0.7297   -0.8134   -0.5869 C   0  0  0  0  0  0  0  0  0  0  0  0
    1.3551   -0.8195   -1.8680 O   0  0  0  0  0  0  0  0  0  0  0  0
    1.7045   -0.3545    0.4670 C   0  0  0  0  0  0  0  0  0  0  0  0
    2.8725    0.2714    0.2615 C   0  0  0  0  0  0  0  0  0  0  0  0
   -3.2645    0.4597   -0.4313 H   0  0  0  0  0  0  0  0  0  0  0  0
   -2.4267    1.8993    0.1815 H   0  0  0  0  0  0  0  0  0  0  0  0
   -3.2684    0.8168    1.3041 H   0  0  0  0  0  0  0  0  0  0  0  0
   -0.8383    0.4340    1.4344 H   0  0  0  0  0  0  0  0  0  0  0  0
   -1.6613   -1.0002    0.8153 H   0  0  0  0  0  0  0  0  0  0  0  0
   -1.1163   -0.2612   -1.5436 H   0  0  0  0  0  0  0  0  0  0  0  0
   -0.2300    1.1022   -0.9065 H   0  0  0  0  0  0  0  0  0  0  0  0
    0.4366   -1.8474   -0.3712 H   0  0  0  0  0  0  0  0  0  0  0  0
    2.1498   -1.3729   -1.7836 H   0  0  0  0  0  0  0  0  0  0  0  0
    1.4130   -0.5622    1.4951 H   0  0  0  0  0  0  0  0  0  0  0  0
    3.5016    0.5624    1.0972 H   0  0  0  0  0  0  0  0  0  0  0  0
    3.2164    0.5316   -0.7352 H   0  0  0  0  0  0  0  0  0  0  0  0
  1  2  1  0
  2  3  1  0
  3  4  1  0
  4  5  1  0
  4  6  1  0
  6  7  2  3
  1  8  1  0
  1  9  1  0
  1 10  1  0
  2 11  1  0
  2 12  1  0
  3 13  1  0
  3 14  1  0
  4 15  1  0
  5 16  1  0
  6 17  1  0
  7 18  1  0
  7 19  1  0
M  END
>  <Energy>  (6) 
-0.52233764680894

>  <Real charge>  (6) 
0

>  <Mult>  (6) 
1

$$$$
mol_922 136
     RDKit          3D

 19 18  0  0  0  0  0  0  0  0999 V2000
   -2.5746    0.5690    0.7599 C   0  0  0  0  0  0  0  0  0  0  0  0
   -1.0990    0.1992    0.7348 C   0  0  0  0  0  0  0  0  0  0  0  0
   -0.6698   -0.2846   -0.6556 C   0  0  0  0  0  0  0  0  0  0  0  0
    0.7990   -0.7203   -0.7417 C   0  0  0  0  0  0  0  0  0  0  0  0
    1.0241   -1.7972    0.1602 O   0  0  0  0  0  0  0  0  0  0  0  0
    1.7665    0.4075   -0.4924 C   0  0  0  0  0  0  0  0  0  0  0  0
    2.6008    0.5391    0.5491 C   0  0  0  0  0  0  0  0  0  0  0  0
   -2.8618    0.9137    1.7583 H   0  0  0  0  0  0  0  0  0  0  0  0
   -2.7898    1.3724    0.0482 H   0  0  0  0  0  0  0  0  0  0  0  0
   -3.1997   -0.2929    0.5055 H   0  0  0  0  0  0  0  0  0  0  0  0
   -0.5125    1.0760    1.0305 H   0  0  0  0  0  0  0  0  0  0  0  0
   -0.9162   -0.5823    1.4808 H   0  0  0  0  0  0  0  0  0  0  0  0
   -1.2992   -1.1423   -0.9265 H   0  0  0  0  0  0  0  0  0  0  0  0
   -0.8644    0.5032   -1.3942 H   0  0  0  0  0  0  0  0  0  0  0  0
    0.9842   -1.1078   -1.7506 H   0  0  0  0  0  0  0  0  0  0  0  0
    1.9547   -2.0564    0.0530 H   0  0  0  0  0  0  0  0  0  0  0  0
    1.7692    1.1894   -1.2503 H   0  0  0  0  0  0  0  0  0  0  0  0
    3.2556    1.4014    0.6300 H   0  0  0  0  0  0  0  0  0  0  0  0
    2.6331   -0.1872    1.3555 H   0  0  0  0  0  0  0  0  0  0  0  0
  1  2  1  0
  2  3  1  0
  3  4  1  0
  4  5  1  0
  4  6  1  0
  6  7  2  3
  1  8  1  0
  1  9  1  0
  1 10  1  0
  2 11  1  0
  2 12  1  0
  3 13  1  0
  3 14  1  0
  4 15  1  0
  5 16  1  0
  6 17  1  0
  7 18  1  0
  7 19  1  0
M  END
>  <Energy>  (7) 
-0.4566727140580189

>  <Real charge>  (7) 
0

>  <Mult>  (7) 
1

$$$$
mol_922 75
     RDKit          3D

 19 18  0  0  0  0  0  0  0  0999 V2000
   -2.8051    0.0377   -0.1572 C   0  0  0  0  0  0  0  0  0  0  0  0
   -1.3975   -0.0263    0.4175 C   0  0  0  0  0  0  0  0  0  0  0  0
   -0.3830   -0.4692   -0.6435 C   0  0  0  0  0  0  0  0  0  0  0  0
    1.0549   -0.6224   -0.1300 C   0  0  0  0  0  0  0  0  0  0  0  0
    1.0817   -1.5606    0.9392 O   0  0  0  0  0  0  0  0  0  0  0  0
    1.6619    0.6566    0.3685 C   0  0  0  0  0  0  0  0  0  0  0  0
    2.7204    1.2615   -0.1871 C   0  0  0  0  0  0  0  0  0  0  0  0
   -2.8582    0.7504   -0.9864 H   0  0  0  0  0  0  0  0  0  0  0  0
   -3.5142    0.3584    0.6124 H   0  0  0  0  0  0  0  0  0  0  0  0
   -3.1240   -0.9428   -0.5250 H   0  0  0  0  0  0  0  0  0  0  0  0
   -1.1344    0.9629    0.8072 H   0  0  0  0  0  0  0  0  0  0  0  0
   -1.3910   -0.7232    1.2630 H   0  0  0  0  0  0  0  0  0  0  0  0
   -0.7088   -1.4415   -1.0360 H   0  0  0  0  0  0  0  0  0  0  0  0
   -0.3986    0.2369   -1.4833 H   0  0  0  0  0  0  0  0  0  0  0  0
    1.6637   -1.0412   -0.9405 H   0  0  0  0  0  0  0  0  0  0  0  0
    1.9970   -1.5844    1.2668 H   0  0  0  0  0  0  0  0  0  0  0  0
    1.2069    1.1042    1.2497 H   0  0  0  0  0  0  0  0  0  0  0  0
    3.2165    0.8581   -1.0645 H   0  0  0  0  0  0  0  0  0  0  0  0
    3.1121    2.1850    0.2291 H   0  0  0  0  0  0  0  0  0  0  0  0
  1  2  1  0
  2  3  1  0
  3  4  1  0
  4  5  1  0
  4  6  1  0
  6  7  2  3
  1  8  1  0
  1  9  1  0
  1 10  1  0
  2 11  1  0
  2 12  1  0
  3 13  1  0
  3 14  1  0
  4 15  1  0
  5 16  1  0
  6 17  1  0
  7 18  1  0
  7 19  1  0
M  END
>  <Energy>  (8) 
-0.4148961324951892

>  <Real charge>  (8) 
0

>  <Mult>  (8) 
1

$$$$
mol_922 60
     RDKit          3D

 19 18  0  0  0  0  0  0  0  0999 V2000
    2.2672    1.7926    0.3323 C   0  0  0  0  0  0  0  0  0  0  0  0
    1.3054    0.7202    0.8201 C   0  0  0  0  0  0  0  0  0  0  0  0
    0.4180    0.2051   -0.3173 C   0  0  0  0  0  0  0  0  0  0  0  0
   -0.5321   -0.9070    0.1492 C   0  0  0  0  0  0  0  0  0  0  0  0
   -1.3936   -0.4048    1.1641 O   0  0  0  0  0  0  0  0  0  0  0  0
   -1.3354   -1.4561   -1.0023 C   0  0  0  0  0  0  0  0  0  0  0  0
   -2.6693   -1.5725   -1.0750 C   0  0  0  0  0  0  0  0  0  0  0  0
    2.9273    1.4019   -0.4487 H   0  0  0  0  0  0  0  0  0  0  0  0
    2.8915    2.1460    1.1589 H   0  0  0  0  0  0  0  0  0  0  0  0
    1.7236    2.6513   -0.0744 H   0  0  0  0  0  0  0  0  0  0  0  0
    0.6878    1.1362    1.6241 H   0  0  0  0  0  0  0  0  0  0  0  0
    1.8800   -0.1098    1.2473 H   0  0  0  0  0  0  0  0  0  0  0  0
   -0.1639    1.0475   -0.7141 H   0  0  0  0  0  0  0  0  0  0  0  0
    1.0522   -0.1652   -1.1327 H   0  0  0  0  0  0  0  0  0  0  0  0
    0.0484   -1.7271    0.5864 H   0  0  0  0  0  0  0  0  0  0  0  0
   -1.8964    0.3269    0.7685 H   0  0  0  0  0  0  0  0  0  0  0  0
   -0.7499   -1.8121   -1.8488 H   0  0  0  0  0  0  0  0  0  0  0  0
   -3.1412   -1.9994   -1.9547 H   0  0  0  0  0  0  0  0  0  0  0  0
   -3.3198   -1.2738   -0.2590 H   0  0  0  0  0  0  0  0  0  0  0  0
  1  2  1  0
  2  3  1  0
  3  4  1  0
  4  5  1  0
  4  6  1  0
  6  7  2  3
  1  8  1  0
  1  9  1  0
  1 10  1  0
  2 11  1  0
  2 12  1  0
  3 13  1  0
  3 14  1  0
  4 15  1  0
  5 16  1  0
  6 17  1  0
  7 18  1  0
  7 19  1  0
M  END
>  <Energy>  (9) 
-0.33751870296870523

>  <Real charge>  (9) 
0

>  <Mult>  (9) 
1

$$$$
mol_922 172
     RDKit          3D

 19 18  0  0  0  0  0  0  0  0999 V2000
   -2.4365    0.4109   -0.2043 C   0  0  0  0  0  0  0  0  0  0  0  0
   -1.6299   -0.7406   -0.7842 C   0  0  0  0  0  0  0  0  0  0  0  0
   -0.1409   -0.4183   -0.9570 C   0  0  0  0  0  0  0  0  0  0  0  0
    0.6028   -0.1560    0.3574 C   0  0  0  0  0  0  0  0  0  0  0  0
    0.5041   -1.3018    1.1942 O   0  0  0  0  0  0  0  0  0  0  0  0
    2.0634    0.0952    0.1167 C   0  0  0  0  0  0  0  0  0  0  0  0
    2.7075    1.2208    0.4529 C   0  0  0  0  0  0  0  0  0  0  0  0
   -2.3019    1.3223   -0.7951 H   0  0  0  0  0  0  0  0  0  0  0  0
   -2.1489    0.6217    0.8298 H   0  0  0  0  0  0  0  0  0  0  0  0
   -3.5023    0.1606   -0.2060 H   0  0  0  0  0  0  0  0  0  0  0  0
   -2.0437   -0.9932   -1.7680 H   0  0  0  0  0  0  0  0  0  0  0  0
   -1.7563   -1.6286   -0.1545 H   0  0  0  0  0  0  0  0  0  0  0  0
   -0.0320    0.4450   -1.6256 H   0  0  0  0  0  0  0  0  0  0  0  0
    0.3174   -1.2764   -1.4670 H   0  0  0  0  0  0  0  0  0  0  0  0
    0.1503    0.6881    0.8886 H   0  0  0  0  0  0  0  0  0  0  0  0
    1.0602   -1.1270    1.9727 H   0  0  0  0  0  0  0  0  0  0  0  0
    2.6201   -0.7079   -0.3628 H   0  0  0  0  0  0  0  0  0  0  0  0
    2.1986    2.0513    0.9324 H   0  0  0  0  0  0  0  0  0  0  0  0
    3.7681    1.3339    0.2486 H   0  0  0  0  0  0  0  0  0  0  0  0
  1  2  1  0
  2  3  1  0
  3  4  1  0
  4  5  1  0
  4  6  1  0
  6  7  2  3
  1  8  1  0
  1  9  1  0
  1 10  1  0
  2 11  1  0
  2 12  1  0
  3 13  1  0
  3 14  1  0
  4 15  1  0
  5 16  1  0
  6 17  1  0
  7 18  1  0
  7 19  1  0
M  END
>  <Energy>  (10) 
-0.2766303528688967

>  <Real charge>  (10) 
0

>  <Mult>  (10) 
1

$$$$
