mol_642 31
     RDKit          3D

 15 14  0  0  0  0  0  0  0  0999 V2000
    1.7492   -0.5838   -0.1353 C   0  0  0  0  0  0  0  0  0  0  0  0
    0.6391    0.2066   -0.8136 C   0  0  0  0  0  0  0  0  0  0  0  0
   -0.5745    0.3844    0.0684 C   0  0  0  0  0  0  0  0  0  0  0  0
   -0.9050    1.5825    0.5778 C   0  0  0  0  0  0  0  0  0  0  0  0
   -1.4159   -0.8356    0.3196 C   0  0  0  0  0  0  0  0  0  0  0  0
    2.0603   -0.1068    0.8001 H   0  0  0  0  0  0  0  0  0  0  0  0
    2.6235   -0.6426   -0.7917 H   0  0  0  0  0  0  0  0  0  0  0  0
    1.4337   -1.6074    0.0904 H   0  0  0  0  0  0  0  0  0  0  0  0
    0.3423   -0.2962   -1.7418 H   0  0  0  0  0  0  0  0  0  0  0  0
    1.0403    1.1835   -1.1115 H   0  0  0  0  0  0  0  0  0  0  0  0
   -1.7842    1.7127    1.2017 H   0  0  0  0  0  0  0  0  0  0  0  0
   -0.3040    2.4667    0.3878 H   0  0  0  0  0  0  0  0  0  0  0  0
   -0.8496   -1.5875    0.8776 H   0  0  0  0  0  0  0  0  0  0  0  0
   -2.3149   -0.6012    0.8996 H   0  0  0  0  0  0  0  0  0  0  0  0
   -1.7403   -1.2753   -0.6291 H   0  0  0  0  0  0  0  0  0  0  0  0
  1  2  1  0
  2  3  1  0
  3  4  2  3
  3  5  1  0
  1  6  1  0
  1  7  1  0
  1  8  1  0
  2  9  1  0
  2 10  1  0
  4 11  1  0
  4 12  1  0
  5 13  1  0
  5 14  1  0
  5 15  1  0
M  END
>  <Energy>  (1) 
7.119935386959222

>  <Real charge>  (1) 
0

>  <Mult>  (1) 
1

$$$$
mol_642 70
     RDKit          3D

 15 14  0  0  0  0  0  0  0  0999 V2000
   -1.9928    0.0964    0.1081 C   0  0  0  0  0  0  0  0  0  0  0  0
   -0.6798   -0.6746    0.0345 C   0  0  0  0  0  0  0  0  0  0  0  0
    0.5948    0.1421   -0.0317 C   0  0  0  0  0  0  0  0  0  0  0  0
    0.6524    1.4844   -0.0303 C   0  0  0  0  0  0  0  0  0  0  0  0
    1.8568   -0.6775   -0.1027 C   0  0  0  0  0  0  0  0  0  0  0  0
   -2.0362    0.7251    1.0035 H   0  0  0  0  0  0  0  0  0  0  0  0
   -2.1323    0.7311   -0.7731 H   0  0  0  0  0  0  0  0  0  0  0  0
   -2.8347   -0.6026    0.1513 H   0  0  0  0  0  0  0  0  0  0  0  0
   -0.7182   -1.3254   -0.8480 H   0  0  0  0  0  0  0  0  0  0  0  0
   -0.6230   -1.3313    0.9116 H   0  0  0  0  0  0  0  0  0  0  0  0
   -0.2344    2.1068    0.0198 H   0  0  0  0  0  0  0  0  0  0  0  0
    1.6023    2.0093   -0.0799 H   0  0  0  0  0  0  0  0  0  0  0  0
    1.8470   -1.3125   -0.9946 H   0  0  0  0  0  0  0  0  0  0  0  0
    1.9430   -1.3185    0.7808 H   0  0  0  0  0  0  0  0  0  0  0  0
    2.7550   -0.0526   -0.1492 H   0  0  0  0  0  0  0  0  0  0  0  0
  1  2  1  0
  2  3  1  0
  3  4  2  3
  3  5  1  0
  1  6  1  0
  1  7  1  0
  1  8  1  0
  2  9  1  0
  2 10  1  0
  4 11  1  0
  4 12  1  0
  5 13  1  0
  5 14  1  0
  5 15  1  0
M  END
>  <Energy>  (2) 
7.150212059231341

>  <Real charge>  (2) 
0

>  <Mult>  (2) 
1

$$$$
