mol_634 290
     RDKit          3D

 25 26  0  0  0  0  0  0  0  0999 V2000
    3.3677    1.7398   -0.8809 N   0  0  0  0  0  0  0  0  0  0  0  0
    3.4084    0.3236    0.0286 S   0  0  0  0  0  6  0  0  0  0  0  0
    3.9171    0.7318    1.3161 O   0  0  0  0  0  0  0  0  0  0  0  0
    4.0629   -0.6411   -0.8220 O   0  0  0  0  0  0  0  0  0  0  0  0
    1.7180   -0.1410    0.2125 C   0  0  0  0  0  0  0  0  0  0  0  0
    0.7075    0.6219   -0.3805 C   0  0  0  0  0  0  0  0  0  0  0  0
   -0.6277    0.2358   -0.2140 C   0  0  0  0  0  0  0  0  0  0  0  0
   -0.9967   -0.8814    0.5381 C   0  0  0  0  0  0  0  0  0  0  0  0
   -2.3143   -1.3455    0.6325 N   0  0  0  0  0  0  0  0  0  0  0  0
   -3.3784   -0.3987    0.3944 C   0  0  0  0  0  0  0  0  0  0  0  0
   -3.2037    0.1571   -0.9182 N   0  0  0  0  0  0  0  0  0  0  0  0
   -1.8848    1.1777   -1.0090 S   0  0  0  0  0  6  0  0  0  0  0  0
   -1.5383    1.2890   -2.4078 O   0  0  0  0  0  0  0  0  0  0  0  0
   -2.1385    2.3319   -0.1772 O   0  0  0  0  0  0  0  0  0  0  0  0
    0.0378   -1.6514    1.0874 C   0  0  0  0  0  0  0  0  0  0  0  0
    1.3863   -1.2833    0.9440 C   0  0  0  0  0  0  0  0  0  0  0  0
    2.5565   -2.3091    1.6926 Cl  0  0  0  0  0  0  0  0  0  0  0  0
    3.8575    1.5855   -1.7647 H   0  0  0  0  0  0  0  0  0  0  0  0
    3.7661    2.5036   -0.3307 H   0  0  0  0  0  0  0  0  0  0  0  0
    0.9350    1.5040   -0.9749 H   0  0  0  0  0  0  0  0  0  0  0  0
   -2.4745   -1.8973    1.4737 H   0  0  0  0  0  0  0  0  0  0  0  0
   -4.3342   -0.9326    0.4195 H   0  0  0  0  0  0  0  0  0  0  0  0
   -3.4258    0.3693    1.1747 H   0  0  0  0  0  0  0  0  0  0  0  0
   -3.1994   -0.5284   -1.6694 H   0  0  0  0  0  0  0  0  0  0  0  0
   -0.2043   -2.5611    1.6351 H   0  0  0  0  0  0  0  0  0  0  0  0
  1  2  1  0
  2  3  2  0
  2  4  2  0
  2  5  1  0
  5  6  2  0
  6  7  1  0
  7  8  2  0
  8  9  1  0
  9 10  1  0
 10 11  1  0
 11 12  1  0
 12 13  2  0
 12 14  2  0
  8 15  1  0
 15 16  2  0
 16 17  1  0
 12  7  1  0
 16  5  1  0
  1 18  1  0
  1 19  1  0
  6 20  1  0
  9 21  1  0
 10 22  1  0
 10 23  1  0
 11 24  1  0
 15 25  1  0
M  END
>  <Energy>  (1) 
-229.65938338869495

>  <Real charge>  (1) 
0

>  <Mult>  (1) 
1

$$$$
mol_634 279
     RDKit          3D

 25 26  0  0  0  0  0  0  0  0999 V2000
    4.0847   -0.1127    0.7254 N   0  0  0  0  0  0  0  0  0  0  0  0
    3.2732    0.6972   -0.4989 S   0  0  0  0  0  6  0  0  0  0  0  0
    3.2874    2.0846   -0.0941 O   0  0  0  0  0  0  0  0  0  0  0  0
    3.8407    0.2672   -1.7531 O   0  0  0  0  0  0  0  0  0  0  0  0
    1.6240    0.0840   -0.3621 C   0  0  0  0  0  0  0  0  0  0  0  0
    0.6044    0.9848   -0.0325 C   0  0  0  0  0  0  0  0  0  0  0  0
   -0.7140    0.5254    0.0590 C   0  0  0  0  0  0  0  0  0  0  0  0
   -1.0599   -0.8047   -0.1874 C   0  0  0  0  0  0  0  0  0  0  0  0
   -2.3529   -1.3116   -0.0062 N   0  0  0  0  0  0  0  0  0  0  0  0
   -3.4526   -0.3774   -0.0693 C   0  0  0  0  0  0  0  0  0  0  0  0
   -3.2395    0.6381    0.9226 N   0  0  0  0  0  0  0  0  0  0  0  0
   -1.9760    1.6587    0.5313 S   0  0  0  0  0  6  0  0  0  0  0  0
   -2.3409    2.4050   -0.6511 O   0  0  0  0  0  0  0  0  0  0  0  0
   -1.5636    2.2968    1.7606 O   0  0  0  0  0  0  0  0  0  0  0  0
   -0.0153   -1.6938   -0.4774 C   0  0  0  0  0  0  0  0  0  0  0  0
    1.3182   -1.2603   -0.5816 C   0  0  0  0  0  0  0  0  0  0  0  0
    2.4928   -2.4711   -0.9534 Cl  0  0  0  0  0  0  0  0  0  0  0  0
    4.4545    0.5587    1.4000 H   0  0  0  0  0  0  0  0  0  0  0  0
    4.7955   -0.7271    0.3246 H   0  0  0  0  0  0  0  0  0  0  0  0
    0.8231    2.0350    0.1592 H   0  0  0  0  0  0  0  0  0  0  0  0
   -2.5273   -2.1437   -0.5673 H   0  0  0  0  0  0  0  0  0  0  0  0
   -4.3783   -0.9095    0.1737 H   0  0  0  0  0  0  0  0  0  0  0  0
   -3.5819    0.0361   -1.0760 H   0  0  0  0  0  0  0  0  0  0  0  0
   -3.1584    0.2904    1.8747 H   0  0  0  0  0  0  0  0  0  0  0  0
   -0.2380   -2.7502   -0.6205 H   0  0  0  0  0  0  0  0  0  0  0  0
  1  2  1  0
  2  3  2  0
  2  4  2  0
  2  5  1  0
  5  6  2  0
  6  7  1  0
  7  8  2  0
  8  9  1  0
  9 10  1  0
 10 11  1  0
 11 12  1  0
 12 13  2  0
 12 14  2  0
  8 15  1  0
 15 16  2  0
 16 17  1  0
 12  7  1  0
 16  5  1  0
  1 18  1  0
  1 19  1  0
  6 20  1  0
  9 21  1  0
 10 22  1  0
 10 23  1  0
 11 24  1  0
 15 25  1  0
M  END
>  <Energy>  (2) 
-229.42548507172225

>  <Real charge>  (2) 
0

>  <Mult>  (2) 
1

$$$$
mol_634 348
     RDKit          3D

 25 26  0  0  0  0  0  0  0  0999 V2000
    4.1305    0.3622    0.1836 N   0  0  0  0  0  0  0  0  0  0  0  0
    3.1580   -0.7852    0.9274 S   0  0  0  0  0  6  0  0  0  0  0  0
    3.1087   -0.3781    2.3134 O   0  0  0  0  0  0  0  0  0  0  0  0
    3.6436   -2.0846    0.5332 O   0  0  0  0  0  0  0  0  0  0  0  0
    1.5758   -0.5041    0.1983 C   0  0  0  0  0  0  0  0  0  0  0  0
    0.5176   -0.1246    1.0324 C   0  0  0  0  0  0  0  0  0  0  0  0
   -0.7477    0.0974    0.4777 C   0  0  0  0  0  0  0  0  0  0  0  0
   -0.9975   -0.0361   -0.8894 C   0  0  0  0  0  0  0  0  0  0  0  0
   -2.2735    0.0765   -1.4546 N   0  0  0  0  0  0  0  0  0  0  0  0
   -3.2647    0.8375   -0.7309 C   0  0  0  0  0  0  0  0  0  0  0  0
   -3.4116    0.2632    0.5764 N   0  0  0  0  0  0  0  0  0  0  0  0
   -2.0779    0.5315    1.5462 S   0  0  0  0  0  6  0  0  0  0  0  0
   -2.1343   -0.4462    2.6086 O   0  0  0  0  0  0  0  0  0  0  0  0
   -1.9733    1.9510    1.7971 O   0  0  0  0  0  0  0  0  0  0  0  0
    0.0689   -0.4584   -1.6959 C   0  0  0  0  0  0  0  0  0  0  0  0
    1.3536   -0.6788   -1.1687 C   0  0  0  0  0  0  0  0  0  0  0  0
    2.5746   -1.1553   -2.2939 Cl  0  0  0  0  0  0  0  0  0  0  0  0
    4.5114    0.9993    0.8848 H   0  0  0  0  0  0  0  0  0  0  0  0
    4.8446   -0.1022   -0.3803 H   0  0  0  0  0  0  0  0  0  0  0  0
    0.6629   -0.0085    2.1062 H   0  0  0  0  0  0  0  0  0  0  0  0
   -2.2444    0.3272   -2.4413 H   0  0  0  0  0  0  0  0  0  0  0  0
   -4.2223    0.7530   -1.2553 H   0  0  0  0  0  0  0  0  0  0  0  0
   -3.0173    1.9046   -0.6973 H   0  0  0  0  0  0  0  0  0  0  0  0
   -3.6861   -0.7160    0.5812 H   0  0  0  0  0  0  0  0  0  0  0  0
   -0.0995   -0.6256   -2.7588 H   0  0  0  0  0  0  0  0  0  0  0  0
  1  2  1  0
  2  3  2  0
  2  4  2  0
  2  5  1  0
  5  6  2  0
  6  7  1  0
  7  8  2  0
  8  9  1  0
  9 10  1  0
 10 11  1  0
 11 12  1  0
 12 13  2  0
 12 14  2  0
  8 15  1  0
 15 16  2  0
 16 17  1  0
 12  7  1  0
 16  5  1  0
  1 18  1  0
  1 19  1  0
  6 20  1  0
  9 21  1  0
 10 22  1  0
 10 23  1  0
 11 24  1  0
 15 25  1  0
M  END
>  <Energy>  (3) 
-229.3569423307032

>  <Real charge>  (3) 
0

>  <Mult>  (3) 
1

$$$$
