mol_104 11
     RDKit          3D

  5  4  0  0  0  0  0  0  0  0999 V2000
    1.4837    0.8049    0.0069 Cl  0  0  0  0  0  0  0  0  0  0  0  0
   -0.0047   -0.1479    0.0036 C   0  0  0  0  0  0  0  0  0  0  0  0
   -1.4297    0.8960   -0.0488 Cl  0  0  0  0  0  0  0  0  0  0  0  0
   -0.0410   -0.7539    0.9122 H   0  0  0  0  0  0  0  0  0  0  0  0
   -0.0083   -0.7990   -0.8739 H   0  0  0  0  0  0  0  0  0  0  0  0
  1  2  1  0
  2  3  1  0
  2  4  1  0
  2  5  1  0
M  END
>  <Energy>  (1) 
0.048506974558433454

>  <Real charge>  (1) 
0

>  <Mult>  (1) 
1

$$$$
