mol_172 21
     RDKit          3D

 33 32  0  0  0  0  0  0  0  0999 V2000
   -1.7202   -2.5011   -1.3114 C   0  0  0  0  0  0  0  0  0  0  0  0
   -1.0997   -1.5787   -0.2714 C   0  0  0  0  0  0  0  0  0  0  0  0
   -0.2961   -0.4558   -0.9360 C   0  0  0  0  0  0  0  0  0  0  0  0
    0.3832    0.5483    0.0421 C   0  0  0  0  0  0  0  0  0  0  0  0
    1.1337    1.5882   -0.8226 C   0  0  0  0  0  0  0  0  0  0  0  0
    1.3969   -0.1517    0.9784 C   0  0  0  0  0  0  0  0  0  0  0  0
    2.3530   -0.8943    0.2084 O   0  0  0  0  0  0  0  0  0  0  0  0
    3.2668   -1.5569    0.9507 C   0  0  0  0  0  0  0  0  0  0  0  0
    4.1163   -2.2262    0.1421 N   0  0  0  0  0  0  0  0  0  0  0  0
    3.3406   -1.5695    2.1681 O   0  0  0  0  0  0  0  0  0  0  0  0
   -0.6511    1.2837    0.9272 C   0  0  0  0  0  0  0  0  0  0  0  0
   -1.6487    1.9104    0.1083 O   0  0  0  0  0  0  0  0  0  0  0  0
   -2.6074    2.5603    0.8038 C   0  0  0  0  0  0  0  0  0  0  0  0
   -3.4985    3.1110   -0.0484 N   0  0  0  0  0  0  0  0  0  0  0  0
   -2.6852    2.6539    2.0174 O   0  0  0  0  0  0  0  0  0  0  0  0
   -2.4019   -1.9504   -1.9674 H   0  0  0  0  0  0  0  0  0  0  0  0
   -0.9486   -2.9690   -1.9311 H   0  0  0  0  0  0  0  0  0  0  0  0
   -2.2898   -3.2963   -0.8205 H   0  0  0  0  0  0  0  0  0  0  0  0
   -1.9020   -1.1621    0.3461 H   0  0  0  0  0  0  0  0  0  0  0  0
   -0.4558   -2.1758    0.3823 H   0  0  0  0  0  0  0  0  0  0  0  0
    0.4697   -0.9099   -1.5793 H   0  0  0  0  0  0  0  0  0  0  0  0
   -0.9619    0.0935   -1.6151 H   0  0  0  0  0  0  0  0  0  0  0  0
    1.8948    1.1131   -1.4516 H   0  0  0  0  0  0  0  0  0  0  0  0
    0.4492    2.1263   -1.4877 H   0  0  0  0  0  0  0  0  0  0  0  0
    1.6389    2.3313   -0.1953 H   0  0  0  0  0  0  0  0  0  0  0  0
    1.9298    0.5978    1.5781 H   0  0  0  0  0  0  0  0  0  0  0  0
    0.8790   -0.8324    1.6649 H   0  0  0  0  0  0  0  0  0  0  0  0
    4.8573   -2.7723    0.5540 H   0  0  0  0  0  0  0  0  0  0  0  0
    4.0022   -2.1780   -0.8579 H   0  0  0  0  0  0  0  0  0  0  0  0
   -1.1373    0.5808    1.6145 H   0  0  0  0  0  0  0  0  0  0  0  0
   -0.1484    2.0545    1.5262 H   0  0  0  0  0  0  0  0  0  0  0  0
   -3.3809    2.9967   -1.0426 H   0  0  0  0  0  0  0  0  0  0  0  0
   -4.2778    3.6304    0.3255 H   0  0  0  0  0  0  0  0  0  0  0  0
  1  2  1  0
  2  3  1  0
  3  4  1  0
  4  5  1  0
  4  6  1  0
  6  7  1  0
  7  8  1  0
  8  9  1  0
  8 10  2  0
  4 11  1  0
 11 12  1  0
 12 13  1  0
 13 14  1  0
 13 15  2  0
  1 16  1  0
  1 17  1  0
  1 18  1  0
  2 19  1  0
  2 20  1  0
  3 21  1  0
  3 22  1  0
  5 23  1  0
  5 24  1  0
  5 25  1  0
  6 26  1  0
  6 27  1  0
  9 28  1  0
  9 29  1  0
 11 30  1  0
 11 31  1  0
 14 32  1  0
 14 33  1  0
M  END
>  <Energy>  (1) 
-133.447409191583

>  <Real charge>  (1) 
0

>  <Mult>  (1) 
1

$$$$
mol_172 606
     RDKit          3D

 33 32  0  0  0  0  0  0  0  0999 V2000
    3.7049   -0.6358    0.1901 C   0  0  0  0  0  0  0  0  0  0  0  0
    2.3029   -0.3047   -0.3021 C   0  0  0  0  0  0  0  0  0  0  0  0
    1.3568   -0.0229    0.8704 C   0  0  0  0  0  0  0  0  0  0  0  0
   -0.1098    0.3294    0.4847 C   0  0  0  0  0  0  0  0  0  0  0  0
   -0.9057    0.4960    1.8007 C   0  0  0  0  0  0  0  0  0  0  0  0
   -0.1553    1.6572   -0.3086 C   0  0  0  0  0  0  0  0  0  0  0  0
   -1.5162    2.0237   -0.5840 O   0  0  0  0  0  0  0  0  0  0  0  0
   -1.6518    3.1948   -1.2446 C   0  0  0  0  0  0  0  0  0  0  0  0
   -2.9600    3.4486   -1.4641 N   0  0  0  0  0  0  0  0  0  0  0  0
   -0.7494    3.9303   -1.6083 O   0  0  0  0  0  0  0  0  0  0  0  0
   -0.7755   -0.7868   -0.3560 C   0  0  0  0  0  0  0  0  0  0  0  0
   -0.6480   -2.0503    0.3142 O   0  0  0  0  0  0  0  0  0  0  0  0
   -1.1902   -3.0901   -0.3562 C   0  0  0  0  0  0  0  0  0  0  0  0
   -1.0175   -4.2293    0.3483 N   0  0  0  0  0  0  0  0  0  0  0  0
   -1.7560   -3.0428   -1.4358 O   0  0  0  0  0  0  0  0  0  0  0  0
    4.3671   -0.8341   -0.6585 H   0  0  0  0  0  0  0  0  0  0  0  0
    4.1266    0.1965    0.7627 H   0  0  0  0  0  0  0  0  0  0  0  0
    3.6968   -1.5245    0.8292 H   0  0  0  0  0  0  0  0  0  0  0  0
    2.3639    0.5645   -0.9645 H   0  0  0  0  0  0  0  0  0  0  0  0
    1.9361   -1.1477   -0.8965 H   0  0  0  0  0  0  0  0  0  0  0  0
    1.7738    0.8023    1.4640 H   0  0  0  0  0  0  0  0  0  0  0  0
    1.3582   -0.8980    1.5341 H   0  0  0  0  0  0  0  0  0  0  0  0
   -1.9649    0.7008    1.6099 H   0  0  0  0  0  0  0  0  0  0  0  0
   -0.8534   -0.4080    2.4178 H   0  0  0  0  0  0  0  0  0  0  0  0
   -0.5089    1.3259    2.3965 H   0  0  0  0  0  0  0  0  0  0  0  0
    0.3720    1.5519   -1.2637 H   0  0  0  0  0  0  0  0  0  0  0  0
    0.3213    2.4565    0.2731 H   0  0  0  0  0  0  0  0  0  0  0  0
   -3.2141    4.2597   -2.0069 H   0  0  0  0  0  0  0  0  0  0  0  0
   -3.6531    2.7635   -1.2071 H   0  0  0  0  0  0  0  0  0  0  0  0
   -0.3043   -0.8537   -1.3442 H   0  0  0  0  0  0  0  0  0  0  0  0
   -1.8421   -0.5715   -0.4996 H   0  0  0  0  0  0  0  0  0  0  0  0
   -1.3674   -5.0967   -0.0285 H   0  0  0  0  0  0  0  0  0  0  0  0
   -0.5369   -4.2048    1.2337 H   0  0  0  0  0  0  0  0  0  0  0  0
  1  2  1  0
  2  3  1  0
  3  4  1  0
  4  5  1  0
  4  6  1  0
  6  7  1  0
  7  8  1  0
  8  9  1  0
  8 10  2  0
  4 11  1  0
 11 12  1  0
 12 13  1  0
 13 14  1  0
 13 15  2  0
  1 16  1  0
  1 17  1  0
  1 18  1  0
  2 19  1  0
  2 20  1  0
  3 21  1  0
  3 22  1  0
  5 23  1  0
  5 24  1  0
  5 25  1  0
  6 26  1  0
  6 27  1  0
  9 28  1  0
  9 29  1  0
 11 30  1  0
 11 31  1  0
 14 32  1  0
 14 33  1  0
M  END
>  <Energy>  (2) 
-133.34941461759803

>  <Real charge>  (2) 
0

>  <Mult>  (2) 
1

$$$$
mol_172 263
     RDKit          3D

 33 32  0  0  0  0  0  0  0  0999 V2000
    3.2147   -0.6306    1.4041 C   0  0  0  0  0  0  0  0  0  0  0  0
    2.3314   -0.4301    0.1804 C   0  0  0  0  0  0  0  0  0  0  0  0
    0.8458   -0.4846    0.5550 C   0  0  0  0  0  0  0  0  0  0  0  0
   -0.1537   -0.3226   -0.6294 C   0  0  0  0  0  0  0  0  0  0  0  0
   -0.0221   -1.5091   -1.6049 C   0  0  0  0  0  0  0  0  0  0  0  0
   -1.5958   -0.2923   -0.0549 C   0  0  0  0  0  0  0  0  0  0  0  0
   -1.8892   -1.5273    0.6174 O   0  0  0  0  0  0  0  0  0  0  0  0
   -3.1224   -1.5796    1.1664 C   0  0  0  0  0  0  0  0  0  0  0  0
   -3.3031   -2.7722    1.7738 N   0  0  0  0  0  0  0  0  0  0  0  0
   -3.9688   -0.7018    1.1361 O   0  0  0  0  0  0  0  0  0  0  0  0
    0.0826    0.9890   -1.4141 C   0  0  0  0  0  0  0  0  0  0  0  0
    0.0256    2.1117   -0.5234 O   0  0  0  0  0  0  0  0  0  0  0  0
    0.2666    3.3019   -1.1162 C   0  0  0  0  0  0  0  0  0  0  0  0
    0.1865    4.2934   -0.2028 N   0  0  0  0  0  0  0  0  0  0  0  0
    0.5144    3.4869   -2.2960 O   0  0  0  0  0  0  0  0  0  0  0  0
    4.2708   -0.5861    1.1201 H   0  0  0  0  0  0  0  0  0  0  0  0
    3.0286   -1.6049    1.8673 H   0  0  0  0  0  0  0  0  0  0  0  0
    3.0311    0.1472    2.1522 H   0  0  0  0  0  0  0  0  0  0  0  0
    2.5781    0.5374   -0.2686 H   0  0  0  0  0  0  0  0  0  0  0  0
    2.5713   -1.2059   -0.5536 H   0  0  0  0  0  0  0  0  0  0  0  0
    0.6543   -1.4410    1.0596 H   0  0  0  0  0  0  0  0  0  0  0  0
    0.6486    0.2945    1.3034 H   0  0  0  0  0  0  0  0  0  0  0  0
    0.9390   -1.4961   -2.1293 H   0  0  0  0  0  0  0  0  0  0  0  0
   -0.8073   -1.4767   -2.3690 H   0  0  0  0  0  0  0  0  0  0  0  0
   -0.1037   -2.4697   -1.0847 H   0  0  0  0  0  0  0  0  0  0  0  0
   -1.7053    0.5348    0.6578 H   0  0  0  0  0  0  0  0  0  0  0  0
   -2.3203   -0.1530   -0.8677 H   0  0  0  0  0  0  0  0  0  0  0  0
   -4.1828   -2.9624    2.2287 H   0  0  0  0  0  0  0  0  0  0  0  0
   -2.5664   -3.4595    1.7615 H   0  0  0  0  0  0  0  0  0  0  0  0
   -0.6899    1.1082   -2.1850 H   0  0  0  0  0  0  0  0  0  0  0  0
    1.0589    0.9686   -1.9136 H   0  0  0  0  0  0  0  0  0  0  0  0
    0.2796    5.2489   -0.5119 H   0  0  0  0  0  0  0  0  0  0  0  0
   -0.0975    4.0831    0.7411 H   0  0  0  0  0  0  0  0  0  0  0  0
  1  2  1  0
  2  3  1  0
  3  4  1  0
  4  5  1  0
  4  6  1  0
  6  7  1  0
  7  8  1  0
  8  9  1  0
  8 10  2  0
  4 11  1  0
 11 12  1  0
 12 13  1  0
 13 14  1  0
 13 15  2  0
  1 16  1  0
  1 17  1  0
  1 18  1  0
  2 19  1  0
  2 20  1  0
  3 21  1  0
  3 22  1  0
  5 23  1  0
  5 24  1  0
  5 25  1  0
  6 26  1  0
  6 27  1  0
  9 28  1  0
  9 29  1  0
 11 30  1  0
 11 31  1  0
 14 32  1  0
 14 33  1  0
M  END
>  <Energy>  (3) 
-133.2869869937565

>  <Real charge>  (3) 
0

>  <Mult>  (3) 
1

$$$$
mol_172 550
     RDKit          3D

 33 32  0  0  0  0  0  0  0  0999 V2000
   -0.1455   -3.9189    0.6957 C   0  0  0  0  0  0  0  0  0  0  0  0
   -0.3860   -2.6768   -0.1512 C   0  0  0  0  0  0  0  0  0  0  0  0
   -0.4372   -1.4156    0.7183 C   0  0  0  0  0  0  0  0  0  0  0  0
   -0.6983   -0.0799   -0.0385 C   0  0  0  0  0  0  0  0  0  0  0  0
   -2.0910   -0.0940   -0.6996 C   0  0  0  0  0  0  0  0  0  0  0  0
   -0.6459    1.0592    1.0154 C   0  0  0  0  0  0  0  0  0  0  0  0
   -0.8832    2.3305    0.3926 O   0  0  0  0  0  0  0  0  0  0  0  0
   -0.8247    3.3817    1.2393 C   0  0  0  0  0  0  0  0  0  0  0  0
   -1.0459    4.5287    0.5613 N   0  0  0  0  0  0  0  0  0  0  0  0
   -0.6023    3.3373    2.4379 O   0  0  0  0  0  0  0  0  0  0  0  0
    0.3590    0.1805   -1.1376 C   0  0  0  0  0  0  0  0  0  0  0  0
    1.6757    0.1467   -0.5681 O   0  0  0  0  0  0  0  0  0  0  0  0
    2.6690    0.3742   -1.4550 C   0  0  0  0  0  0  0  0  0  0  0  0
    3.8633    0.3312   -0.8257 N   0  0  0  0  0  0  0  0  0  0  0  0
    2.5413    0.5938   -2.6481 O   0  0  0  0  0  0  0  0  0  0  0  0
   -0.9475   -4.0560    1.4281 H   0  0  0  0  0  0  0  0  0  0  0  0
   -0.1102   -4.8094    0.0602 H   0  0  0  0  0  0  0  0  0  0  0  0
    0.8048   -3.8485    1.2345 H   0  0  0  0  0  0  0  0  0  0  0  0
   -1.3254   -2.8056   -0.6980 H   0  0  0  0  0  0  0  0  0  0  0  0
    0.4186   -2.6009   -0.8896 H   0  0  0  0  0  0  0  0  0  0  0  0
   -1.2196   -1.5493    1.4779 H   0  0  0  0  0  0  0  0  0  0  0  0
    0.5080   -1.3395    1.2724 H   0  0  0  0  0  0  0  0  0  0  0  0
   -2.1610   -0.8587   -1.4798 H   0  0  0  0  0  0  0  0  0  0  0  0
   -2.8750   -0.2947    0.0389 H   0  0  0  0  0  0  0  0  0  0  0  0
   -2.3204    0.8663   -1.1748 H   0  0  0  0  0  0  0  0  0  0  0  0
    0.3349    1.0784    1.5073 H   0  0  0  0  0  0  0  0  0  0  0  0
   -1.4155    0.8933    1.7805 H   0  0  0  0  0  0  0  0  0  0  0  0
   -1.1485    4.5052   -0.4411 H   0  0  0  0  0  0  0  0  0  0  0  0
   -0.9717    5.4067    1.0517 H   0  0  0  0  0  0  0  0  0  0  0  0
    0.1945    1.1598   -1.6047 H   0  0  0  0  0  0  0  0  0  0  0  0
    0.2888   -0.5802   -1.9247 H   0  0  0  0  0  0  0  0  0  0  0  0
    4.6988    0.5401   -1.3503 H   0  0  0  0  0  0  0  0  0  0  0  0
    3.8979    0.2144    0.1747 H   0  0  0  0  0  0  0  0  0  0  0  0
  1  2  1  0
  2  3  1  0
  3  4  1  0
  4  5  1  0
  4  6  1  0
  6  7  1  0
  7  8  1  0
  8  9  1  0
  8 10  2  0
  4 11  1  0
 11 12  1  0
 12 13  1  0
 13 14  1  0
 13 15  2  0
  1 16  1  0
  1 17  1  0
  1 18  1  0
  2 19  1  0
  2 20  1  0
  3 21  1  0
  3 22  1  0
  5 23  1  0
  5 24  1  0
  5 25  1  0
  6 26  1  0
  6 27  1  0
  9 28  1  0
  9 29  1  0
 11 30  1  0
 11 31  1  0
 14 32  1  0
 14 33  1  0
M  END
>  <Energy>  (4) 
-133.1700389841607

>  <Real charge>  (4) 
0

>  <Mult>  (4) 
1

$$$$
mol_172 248
     RDKit          3D

 33 32  0  0  0  0  0  0  0  0999 V2000
   -2.7282   -2.6749    1.1545 C   0  0  0  0  0  0  0  0  0  0  0  0
   -1.4768   -2.1938    0.4329 C   0  0  0  0  0  0  0  0  0  0  0  0
   -1.2145   -0.7087    0.7099 C   0  0  0  0  0  0  0  0  0  0  0  0
    0.0228   -0.0910   -0.0070 C   0  0  0  0  0  0  0  0  0  0  0  0
   -0.1666   -0.1408   -1.5374 C   0  0  0  0  0  0  0  0  0  0  0  0
    0.1677    1.3929    0.4278 C   0  0  0  0  0  0  0  0  0  0  0  0
   -1.0251    2.1253    0.1043 O   0  0  0  0  0  0  0  0  0  0  0  0
   -0.9833    3.4313    0.4471 C   0  0  0  0  0  0  0  0  0  0  0  0
   -2.1437    4.0319    0.1053 N   0  0  0  0  0  0  0  0  0  0  0  0
   -0.0553    4.0119    0.9853 O   0  0  0  0  0  0  0  0  0  0  0  0
    1.3141   -0.8494    0.3832 C   0  0  0  0  0  0  0  0  0  0  0  0
    2.4601   -0.2129   -0.2029 O   0  0  0  0  0  0  0  0  0  0  0  0
    3.6364   -0.8104    0.0901 C   0  0  0  0  0  0  0  0  0  0  0  0
    4.6509   -0.1362   -0.4930 N   0  0  0  0  0  0  0  0  0  0  0  0
    3.7921   -1.8038    0.7804 O   0  0  0  0  0  0  0  0  0  0  0  0
   -2.6293   -2.5496    2.2375 H   0  0  0  0  0  0  0  0  0  0  0  0
   -3.6110   -2.1190    0.8226 H   0  0  0  0  0  0  0  0  0  0  0  0
   -2.8988   -3.7364    0.9496 H   0  0  0  0  0  0  0  0  0  0  0  0
   -0.6306   -2.8019    0.7680 H   0  0  0  0  0  0  0  0  0  0  0  0
   -1.6050   -2.3678   -0.6402 H   0  0  0  0  0  0  0  0  0  0  0  0
   -1.0977   -0.5741    1.7938 H   0  0  0  0  0  0  0  0  0  0  0  0
   -2.1146   -0.1461    0.4290 H   0  0  0  0  0  0  0  0  0  0  0  0
    0.6178    0.4235   -2.0545 H   0  0  0  0  0  0  0  0  0  0  0  0
   -0.1267   -1.1681   -1.9144 H   0  0  0  0  0  0  0  0  0  0  0  0
   -1.1305    0.2861   -1.8354 H   0  0  0  0  0  0  0  0  0  0  0  0
    0.3366    1.4482    1.5110 H   0  0  0  0  0  0  0  0  0  0  0  0
    1.0159    1.8641   -0.0843 H   0  0  0  0  0  0  0  0  0  0  0  0
   -2.2651    5.0130    0.3040 H   0  0  0  0  0  0  0  0  0  0  0  0
   -2.8766    3.4969   -0.3329 H   0  0  0  0  0  0  0  0  0  0  0  0
    1.2746   -1.8843    0.0240 H   0  0  0  0  0  0  0  0  0  0  0  0
    1.4278   -0.8557    1.4747 H   0  0  0  0  0  0  0  0  0  0  0  0
    5.5986   -0.4254   -0.3050 H   0  0  0  0  0  0  0  0  0  0  0  0
    4.4636    0.7251   -0.9819 H   0  0  0  0  0  0  0  0  0  0  0  0
  1  2  1  0
  2  3  1  0
  3  4  1  0
  4  5  1  0
  4  6  1  0
  6  7  1  0
  7  8  1  0
  8  9  1  0
  8 10  2  0
  4 11  1  0
 11 12  1  0
 12 13  1  0
 13 14  1  0
 13 15  2  0
  1 16  1  0
  1 17  1  0
  1 18  1  0
  2 19  1  0
  2 20  1  0
  3 21  1  0
  3 22  1  0
  5 23  1  0
  5 24  1  0
  5 25  1  0
  6 26  1  0
  6 27  1  0
  9 28  1  0
  9 29  1  0
 11 30  1  0
 11 31  1  0
 14 32  1  0
 14 33  1  0
M  END
>  <Energy>  (5) 
-132.95423273366504

>  <Real charge>  (5) 
0

>  <Mult>  (5) 
1

$$$$
mol_172 568
     RDKit          3D

 33 32  0  0  0  0  0  0  0  0999 V2000
   -1.5506   -3.6666    0.6328 C   0  0  0  0  0  0  0  0  0  0  0  0
   -1.6796   -2.1904    0.2828 C   0  0  0  0  0  0  0  0  0  0  0  0
   -0.3430   -1.6184   -0.2043 C   0  0  0  0  0  0  0  0  0  0  0  0
   -0.3496   -0.1103   -0.5927 C   0  0  0  0  0  0  0  0  0  0  0  0
   -1.3758    0.1623   -1.7103 C   0  0  0  0  0  0  0  0  0  0  0  0
   -0.6807    0.7592    0.6445 C   0  0  0  0  0  0  0  0  0  0  0  0
   -0.5915    2.1526    0.3063 O   0  0  0  0  0  0  0  0  0  0  0  0
   -0.8012    2.9902    1.3453 C   0  0  0  0  0  0  0  0  0  0  0  0
   -0.6804    4.2706    0.9327 N   0  0  0  0  0  0  0  0  0  0  0  0
   -1.0568    2.6719    2.4948 O   0  0  0  0  0  0  0  0  0  0  0  0
    1.0519    0.2691   -1.1420 C   0  0  0  0  0  0  0  0  0  0  0  0
    2.0505    0.0696   -0.1304 O   0  0  0  0  0  0  0  0  0  0  0  0
    3.3003    0.4149   -0.5094 C   0  0  0  0  0  0  0  0  0  0  0  0
    4.1619    0.2055    0.5094 N   0  0  0  0  0  0  0  0  0  0  0  0
    3.6336    0.8572   -1.5962 O   0  0  0  0  0  0  0  0  0  0  0  0
   -0.8166   -3.8182    1.4306 H   0  0  0  0  0  0  0  0  0  0  0  0
   -2.5124   -4.0594    0.9774 H   0  0  0  0  0  0  0  0  0  0  0  0
   -1.2379   -4.2508   -0.2386 H   0  0  0  0  0  0  0  0  0  0  0  0
   -2.0274   -1.6530    1.1705 H   0  0  0  0  0  0  0  0  0  0  0  0
   -2.4472   -2.0837   -0.4904 H   0  0  0  0  0  0  0  0  0  0  0  0
   -0.0132   -2.2051   -1.0725 H   0  0  0  0  0  0  0  0  0  0  0  0
    0.4077   -1.7869    0.5790 H   0  0  0  0  0  0  0  0  0  0  0  0
   -1.2213   -0.5132   -2.5592 H   0  0  0  0  0  0  0  0  0  0  0  0
   -2.4035    0.0303   -1.3567 H   0  0  0  0  0  0  0  0  0  0  0  0
   -1.2944    1.1881   -2.0874 H   0  0  0  0  0  0  0  0  0  0  0  0
   -1.7013    0.5588    0.9905 H   0  0  0  0  0  0  0  0  0  0  0  0
    0.0161    0.5389    1.4630 H   0  0  0  0  0  0  0  0  0  0  0  0
   -0.3924    4.4658   -0.0133 H   0  0  0  0  0  0  0  0  0  0  0  0
   -0.7492    5.0108    1.6140 H   0  0  0  0  0  0  0  0  0  0  0  0
    1.2952   -0.3599   -2.0082 H   0  0  0  0  0  0  0  0  0  0  0  0
    1.0695    1.3181   -1.4638 H   0  0  0  0  0  0  0  0  0  0  0  0
    5.1270    0.4746    0.3951 H   0  0  0  0  0  0  0  0  0  0  0  0
    3.8124   -0.0925    1.4066 H   0  0  0  0  0  0  0  0  0  0  0  0
  1  2  1  0
  2  3  1  0
  3  4  1  0
  4  5  1  0
  4  6  1  0
  6  7  1  0
  7  8  1  0
  8  9  1  0
  8 10  2  0
  4 11  1  0
 11 12  1  0
 12 13  1  0
 13 14  1  0
 13 15  2  0
  1 16  1  0
  1 17  1  0
  1 18  1  0
  2 19  1  0
  2 20  1  0
  3 21  1  0
  3 22  1  0
  5 23  1  0
  5 24  1  0
  5 25  1  0
  6 26  1  0
  6 27  1  0
  9 28  1  0
  9 29  1  0
 11 30  1  0
 11 31  1  0
 14 32  1  0
 14 33  1  0
M  END
>  <Energy>  (6) 
-132.9456719935022

>  <Real charge>  (6) 
0

>  <Mult>  (6) 
1

$$$$
mol_172 558
     RDKit          3D

 33 32  0  0  0  0  0  0  0  0999 V2000
   -3.8530   -1.3356    0.4424 C   0  0  0  0  0  0  0  0  0  0  0  0
   -2.3440   -1.5379    0.4297 C   0  0  0  0  0  0  0  0  0  0  0  0
   -1.6564   -0.5173   -0.4848 C   0  0  0  0  0  0  0  0  0  0  0  0
   -0.1058   -0.6238   -0.5732 C   0  0  0  0  0  0  0  0  0  0  0  0
    0.3149   -2.0046   -1.1156 C   0  0  0  0  0  0  0  0  0  0  0  0
    0.4154    0.4467   -1.5726 C   0  0  0  0  0  0  0  0  0  0  0  0
    0.1171    1.7741   -1.1047 O   0  0  0  0  0  0  0  0  0  0  0  0
    1.1691    2.5831   -0.8520 C   0  0  0  0  0  0  0  0  0  0  0  0
    0.7234    3.7783   -0.4061 N   0  0  0  0  0  0  0  0  0  0  0  0
    2.3535    2.3165   -0.9765 O   0  0  0  0  0  0  0  0  0  0  0  0
    0.5240   -0.4014    0.8228 C   0  0  0  0  0  0  0  0  0  0  0  0
    1.9475   -0.2895    0.6941 O   0  0  0  0  0  0  0  0  0  0  0  0
    2.5782    0.1944    1.7847 C   0  0  0  0  0  0  0  0  0  0  0  0
    3.8743    0.4379    1.4879 N   0  0  0  0  0  0  0  0  0  0  0  0
    2.0749    0.4271    2.8714 O   0  0  0  0  0  0  0  0  0  0  0  0
   -4.1121   -0.3371    0.8087 H   0  0  0  0  0  0  0  0  0  0  0  0
   -4.2733   -1.4542   -0.5614 H   0  0  0  0  0  0  0  0  0  0  0  0
   -4.3281   -2.0717    1.0985 H   0  0  0  0  0  0  0  0  0  0  0  0
   -2.1339   -2.5580    0.0927 H   0  0  0  0  0  0  0  0  0  0  0  0
   -1.9728   -1.4455    1.4554 H   0  0  0  0  0  0  0  0  0  0  0  0
   -1.9298    0.4894   -0.1421 H   0  0  0  0  0  0  0  0  0  0  0  0
   -2.0768   -0.6188   -1.4945 H   0  0  0  0  0  0  0  0  0  0  0  0
   -0.1838   -2.2221   -2.0667 H   0  0  0  0  0  0  0  0  0  0  0  0
    0.0683   -2.8083   -0.4144 H   0  0  0  0  0  0  0  0  0  0  0  0
    1.3957   -2.0525   -1.2911 H   0  0  0  0  0  0  0  0  0  0  0  0
   -0.0932    0.3337   -2.5378 H   0  0  0  0  0  0  0  0  0  0  0  0
    1.4846    0.3112   -1.7746 H   0  0  0  0  0  0  0  0  0  0  0  0
    1.3958    4.4564   -0.0821 H   0  0  0  0  0  0  0  0  0  0  0  0
   -0.2591    3.9025   -0.2184 H   0  0  0  0  0  0  0  0  0  0  0  0
    0.1183    0.5124    1.2755 H   0  0  0  0  0  0  0  0  0  0  0  0
    0.3084   -1.2457    1.4875 H   0  0  0  0  0  0  0  0  0  0  0  0
    4.3769    1.0181    2.1423 H   0  0  0  0  0  0  0  0  0  0  0  0
    4.0819    0.5422    0.5036 H   0  0  0  0  0  0  0  0  0  0  0  0
  1  2  1  0
  2  3  1  0
  3  4  1  0
  4  5  1  0
  4  6  1  0
  6  7  1  0
  7  8  1  0
  8  9  1  0
  8 10  2  0
  4 11  1  0
 11 12  1  0
 12 13  1  0
 13 14  1  0
 13 15  2  0
  1 16  1  0
  1 17  1  0
  1 18  1  0
  2 19  1  0
  2 20  1  0
  3 21  1  0
  3 22  1  0
  5 23  1  0
  5 24  1  0
  5 25  1  0
  6 26  1  0
  6 27  1  0
  9 28  1  0
  9 29  1  0
 11 30  1  0
 11 31  1  0
 14 32  1  0
 14 33  1  0
M  END
>  <Energy>  (7) 
-132.62815731972773

>  <Real charge>  (7) 
0

>  <Mult>  (7) 
1

$$$$
mol_172 356
     RDKit          3D

 33 32  0  0  0  0  0  0  0  0999 V2000
    3.7820   -1.2057    1.1068 C   0  0  0  0  0  0  0  0  0  0  0  0
    2.6801   -1.0561    0.0668 C   0  0  0  0  0  0  0  0  0  0  0  0
    1.6740    0.0242    0.4785 C   0  0  0  0  0  0  0  0  0  0  0  0
    0.5080    0.2848   -0.5196 C   0  0  0  0  0  0  0  0  0  0  0  0
    1.0524    0.7823   -1.8737 C   0  0  0  0  0  0  0  0  0  0  0  0
   -0.3842    1.3922    0.1028 C   0  0  0  0  0  0  0  0  0  0  0  0
   -1.5454    1.6007   -0.7105 O   0  0  0  0  0  0  0  0  0  0  0  0
   -2.5066    2.3539   -0.1349 C   0  0  0  0  0  0  0  0  0  0  0  0
   -3.6144    2.3474   -0.9095 N   0  0  0  0  0  0  0  0  0  0  0  0
   -2.4307    2.9346    0.9355 O   0  0  0  0  0  0  0  0  0  0  0  0
   -0.3362   -0.9883   -0.7777 C   0  0  0  0  0  0  0  0  0  0  0  0
   -0.8594   -1.5102    0.4558 O   0  0  0  0  0  0  0  0  0  0  0  0
   -2.2040   -1.5354    0.5841 C   0  0  0  0  0  0  0  0  0  0  0  0
   -2.5337   -2.0320    1.7966 N   0  0  0  0  0  0  0  0  0  0  0  0
   -3.0306   -1.1650   -0.2335 O   0  0  0  0  0  0  0  0  0  0  0  0
    4.4905   -1.9811    0.7989 H   0  0  0  0  0  0  0  0  0  0  0  0
    4.3357   -0.2694    1.2295 H   0  0  0  0  0  0  0  0  0  0  0  0
    3.3678   -1.4910    2.0791 H   0  0  0  0  0  0  0  0  0  0  0  0
    3.1412   -0.8064   -0.8940 H   0  0  0  0  0  0  0  0  0  0  0  0
    2.1797   -2.0229   -0.0475 H   0  0  0  0  0  0  0  0  0  0  0  0
    2.2203    0.9646    0.6346 H   0  0  0  0  0  0  0  0  0  0  0  0
    1.2578   -0.2471    1.4580 H   0  0  0  0  0  0  0  0  0  0  0  0
    0.2403    1.0649   -2.5529 H   0  0  0  0  0  0  0  0  0  0  0  0
    1.6392    0.0103   -2.3820 H   0  0  0  0  0  0  0  0  0  0  0  0
    1.6944    1.6603   -1.7416 H   0  0  0  0  0  0  0  0  0  0  0  0
    0.1714    2.3361    0.1685 H   0  0  0  0  0  0  0  0  0  0  0  0
   -0.6923    1.1010    1.1153 H   0  0  0  0  0  0  0  0  0  0  0  0
   -3.6799    1.5915   -1.5769 H   0  0  0  0  0  0  0  0  0  0  0  0
   -4.4632    2.6747   -0.4736 H   0  0  0  0  0  0  0  0  0  0  0  0
    0.2825   -1.7783   -1.2173 H   0  0  0  0  0  0  0  0  0  0  0  0
   -1.1264   -0.7916   -1.5124 H   0  0  0  0  0  0  0  0  0  0  0  0
   -1.8080   -2.2202    2.4702 H   0  0  0  0  0  0  0  0  0  0  0  0
   -3.5025   -2.0227    2.0766 H   0  0  0  0  0  0  0  0  0  0  0  0
  1  2  1  0
  2  3  1  0
  3  4  1  0
  4  5  1  0
  4  6  1  0
  6  7  1  0
  7  8  1  0
  8  9  1  0
  8 10  2  0
  4 11  1  0
 11 12  1  0
 12 13  1  0
 13 14  1  0
 13 15  2  0
  1 16  1  0
  1 17  1  0
  1 18  1  0
  2 19  1  0
  2 20  1  0
  3 21  1  0
  3 22  1  0
  5 23  1  0
  5 24  1  0
  5 25  1  0
  6 26  1  0
  6 27  1  0
  9 28  1  0
  9 29  1  0
 11 30  1  0
 11 31  1  0
 14 32  1  0
 14 33  1  0
M  END
>  <Energy>  (8) 
-132.55701111292936

>  <Real charge>  (8) 
0

>  <Mult>  (8) 
1

$$$$
mol_172 73
     RDKit          3D

 33 32  0  0  0  0  0  0  0  0999 V2000
    0.5204    3.9871    1.0252 C   0  0  0  0  0  0  0  0  0  0  0  0
   -0.3769    2.8198    0.6373 C   0  0  0  0  0  0  0  0  0  0  0  0
    0.4248    1.7120   -0.0559 C   0  0  0  0  0  0  0  0  0  0  0  0
   -0.3897    0.4613   -0.5014 C   0  0  0  0  0  0  0  0  0  0  0  0
   -1.4900    0.8578   -1.5051 C   0  0  0  0  0  0  0  0  0  0  0  0
    0.5695   -0.5219   -1.2232 C   0  0  0  0  0  0  0  0  0  0  0  0
    1.5273   -1.0320   -0.2871 O   0  0  0  0  0  0  0  0  0  0  0  0
    2.2294   -2.0997   -0.7212 C   0  0  0  0  0  0  0  0  0  0  0  0
    2.9680   -2.6002    0.2944 N   0  0  0  0  0  0  0  0  0  0  0  0
    2.1947   -2.5865   -1.8393 O   0  0  0  0  0  0  0  0  0  0  0  0
   -1.0266   -0.2264    0.7332 C   0  0  0  0  0  0  0  0  0  0  0  0
   -1.6781   -1.4537    0.3569 O   0  0  0  0  0  0  0  0  0  0  0  0
   -1.2006   -2.5911    0.9082 C   0  0  0  0  0  0  0  0  0  0  0  0
   -1.9023   -3.6483    0.4436 N   0  0  0  0  0  0  0  0  0  0  0  0
   -0.2728   -2.6984    1.6935 O   0  0  0  0  0  0  0  0  0  0  0  0
    1.3057    3.6655    1.7167 H   0  0  0  0  0  0  0  0  0  0  0  0
    0.9969    4.4260    0.1428 H   0  0  0  0  0  0  0  0  0  0  0  0
   -0.0667    4.7684    1.5179 H   0  0  0  0  0  0  0  0  0  0  0  0
   -1.1657    3.1936   -0.0233 H   0  0  0  0  0  0  0  0  0  0  0  0
   -0.8580    2.4366    1.5428 H   0  0  0  0  0  0  0  0  0  0  0  0
    0.9202    2.1437   -0.9362 H   0  0  0  0  0  0  0  0  0  0  0  0
    1.2301    1.3959    0.6205 H   0  0  0  0  0  0  0  0  0  0  0  0
   -2.2624    1.4762   -1.0365 H   0  0  0  0  0  0  0  0  0  0  0  0
   -1.9920   -0.0249   -1.9175 H   0  0  0  0  0  0  0  0  0  0  0  0
   -1.0707    1.4214   -2.3460 H   0  0  0  0  0  0  0  0  0  0  0  0
    1.1063   -0.0094   -2.0312 H   0  0  0  0  0  0  0  0  0  0  0  0
    0.0016   -1.3522   -1.6624 H   0  0  0  0  0  0  0  0  0  0  0  0
    3.3458   -3.5252    0.1566 H   0  0  0  0  0  0  0  0  0  0  0  0
    2.6686   -2.3395    1.2241 H   0  0  0  0  0  0  0  0  0  0  0  0
   -1.8091    0.4094    1.1617 H   0  0  0  0  0  0  0  0  0  0  0  0
   -0.2815   -0.3781    1.5230 H   0  0  0  0  0  0  0  0  0  0  0  0
   -2.5744   -3.5098   -0.2948 H   0  0  0  0  0  0  0  0  0  0  0  0
   -1.5916   -4.5773    0.6831 H   0  0  0  0  0  0  0  0  0  0  0  0
  1  2  1  0
  2  3  1  0
  3  4  1  0
  4  5  1  0
  4  6  1  0
  6  7  1  0
  7  8  1  0
  8  9  1  0
  8 10  2  0
  4 11  1  0
 11 12  1  0
 12 13  1  0
 13 14  1  0
 13 15  2  0
  1 16  1  0
  1 17  1  0
  1 18  1  0
  2 19  1  0
  2 20  1  0
  3 21  1  0
  3 22  1  0
  5 23  1  0
  5 24  1  0
  5 25  1  0
  6 26  1  0
  6 27  1  0
  9 28  1  0
  9 29  1  0
 11 30  1  0
 11 31  1  0
 14 32  1  0
 14 33  1  0
M  END
>  <Energy>  (9) 
-132.55188922211394

>  <Real charge>  (9) 
0

>  <Mult>  (9) 
1

$$$$
mol_172 133
     RDKit          3D

 33 32  0  0  0  0  0  0  0  0999 V2000
   -1.7163   -3.3972    1.4850 C   0  0  0  0  0  0  0  0  0  0  0  0
   -1.3158   -2.4462    0.3654 C   0  0  0  0  0  0  0  0  0  0  0  0
   -1.1999   -1.0063    0.8779 C   0  0  0  0  0  0  0  0  0  0  0  0
   -0.8191    0.0679   -0.1839 C   0  0  0  0  0  0  0  0  0  0  0  0
   -1.8954    0.1504   -1.2839 C   0  0  0  0  0  0  0  0  0  0  0  0
   -0.7413    1.4311    0.5598 C   0  0  0  0  0  0  0  0  0  0  0  0
   -0.3609    2.4920   -0.3340 O   0  0  0  0  0  0  0  0  0  0  0  0
    0.8131    3.1105   -0.0789 C   0  0  0  0  0  0  0  0  0  0  0  0
    1.0344    4.0642   -1.0101 N   0  0  0  0  0  0  0  0  0  0  0  0
    1.5924    2.8684    0.8281 O   0  0  0  0  0  0  0  0  0  0  0  0
    0.5383   -0.2413   -0.8573 C   0  0  0  0  0  0  0  0  0  0  0  0
    1.5715   -0.2625    0.1348 O   0  0  0  0  0  0  0  0  0  0  0  0
    2.8265   -0.2757   -0.3626 C   0  0  0  0  0  0  0  0  0  0  0  0
    3.7172   -0.1433    0.6456 N   0  0  0  0  0  0  0  0  0  0  0  0
    3.1412   -0.3595   -1.5385 O   0  0  0  0  0  0  0  0  0  0  0  0
   -2.6870   -3.1191    1.9079 H   0  0  0  0  0  0  0  0  0  0  0  0
   -1.7929   -4.4202    1.1034 H   0  0  0  0  0  0  0  0  0  0  0  0
   -0.9748   -3.3898    2.2903 H   0  0  0  0  0  0  0  0  0  0  0  0
   -0.3607   -2.7841   -0.0489 H   0  0  0  0  0  0  0  0  0  0  0  0
   -2.0641   -2.5124   -0.4306 H   0  0  0  0  0  0  0  0  0  0  0  0
   -0.4621   -0.9884    1.6913 H   0  0  0  0  0  0  0  0  0  0  0  0
   -2.1581   -0.7240    1.3354 H   0  0  0  0  0  0  0  0  0  0  0  0
   -1.6896    0.9661   -1.9860 H   0  0  0  0  0  0  0  0  0  0  0  0
   -2.8869    0.3266   -0.8524 H   0  0  0  0  0  0  0  0  0  0  0  0
   -1.9437   -0.7715   -1.8726 H   0  0  0  0  0  0  0  0  0  0  0  0
   -0.0745    1.3657    1.4279 H   0  0  0  0  0  0  0  0  0  0  0  0
   -1.7306    1.6965    0.9523 H   0  0  0  0  0  0  0  0  0  0  0  0
    0.4169    4.1335   -1.8036 H   0  0  0  0  0  0  0  0  0  0  0  0
    1.9257    4.5362   -1.0140 H   0  0  0  0  0  0  0  0  0  0  0  0
    0.7658    0.5222   -1.6126 H   0  0  0  0  0  0  0  0  0  0  0  0
    0.5144   -1.2115   -1.3663 H   0  0  0  0  0  0  0  0  0  0  0  0
    3.3548    0.2308    1.5111 H   0  0  0  0  0  0  0  0  0  0  0  0
    4.6615    0.0911    0.3791 H   0  0  0  0  0  0  0  0  0  0  0  0
  1  2  1  0
  2  3  1  0
  3  4  1  0
  4  5  1  0
  4  6  1  0
  6  7  1  0
  7  8  1  0
  8  9  1  0
  8 10  2  0
  4 11  1  0
 11 12  1  0
 12 13  1  0
 13 14  1  0
 13 15  2  0
  1 16  1  0
  1 17  1  0
  1 18  1  0
  2 19  1  0
  2 20  1  0
  3 21  1  0
  3 22  1  0
  5 23  1  0
  5 24  1  0
  5 25  1  0
  6 26  1  0
  6 27  1  0
  9 28  1  0
  9 29  1  0
 11 30  1  0
 11 31  1  0
 14 32  1  0
 14 33  1  0
M  END
>  <Energy>  (10) 
-132.50972671271077

>  <Real charge>  (10) 
0

>  <Mult>  (10) 
1

$$$$
