mol_659 369
     RDKit          3D

 21 21  0  0  0  0  0  0  0  0999 V2000
    3.9646   -0.3217   -0.2794 C   0  0  0  0  0  0  0  0  0  0  0  0
    2.5979    0.0736   -0.4043 O   0  0  0  0  0  0  0  0  0  0  0  0
    1.7342   -0.6914    0.3060 C   0  0  0  0  0  0  0  0  0  0  0  0
    2.0316   -1.6454    1.0083 O   0  0  0  0  0  0  0  0  0  0  0  0
    0.3348   -0.2203    0.1266 C   0  0  0  0  0  0  0  0  0  0  0  0
    0.0129    0.8790   -0.6854 C   0  0  0  0  0  0  0  0  0  0  0  0
   -1.3150    1.2666   -0.8094 C   0  0  0  0  0  0  0  0  0  0  0  0
   -1.6293    2.3349   -1.5983 O   0  0  0  0  0  0  0  0  0  0  0  0
   -2.3183    0.5784   -0.1401 C   0  0  0  0  0  0  0  0  0  0  0  0
   -3.6160    0.9873   -0.2848 O   0  0  0  0  0  0  0  0  0  0  0  0
   -2.0052   -0.5102    0.6647 C   0  0  0  0  0  0  0  0  0  0  0  0
   -3.0330   -1.1496    1.2994 O   0  0  0  0  0  0  0  0  0  0  0  0
   -0.6830   -0.9177    0.8050 C   0  0  0  0  0  0  0  0  0  0  0  0
    4.2934   -0.2410    0.7614 H   0  0  0  0  0  0  0  0  0  0  0  0
    4.1044   -1.3410   -0.6529 H   0  0  0  0  0  0  0  0  0  0  0  0
    4.5701    0.3560   -0.8875 H   0  0  0  0  0  0  0  0  0  0  0  0
    0.7775    1.4351   -1.2200 H   0  0  0  0  0  0  0  0  0  0  0  0
   -2.6027    2.4162   -1.5315 H   0  0  0  0  0  0  0  0  0  0  0  0
   -4.1295    0.3634    0.2690 H   0  0  0  0  0  0  0  0  0  0  0  0
   -2.6633   -1.8843    1.8213 H   0  0  0  0  0  0  0  0  0  0  0  0
   -0.4261   -1.7678    1.4319 H   0  0  0  0  0  0  0  0  0  0  0  0
  1  2  1  0
  2  3  1  0
  3  4  2  0
  3  5  1  0
  5  6  2  0
  6  7  1  0
  7  8  1  0
  7  9  2  0
  9 10  1  0
  9 11  1  0
 11 12  1  0
 11 13  2  0
 13  5  1  0
  1 14  1  0
  1 15  1  0
  1 16  1  0
  6 17  1  0
  8 18  1  0
 10 19  1  0
 12 20  1  0
 13 21  1  0
M  END
>  <Energy>  (1) 
6.175510660226117

>  <Real charge>  (1) 
0

>  <Mult>  (1) 
1

$$$$
