mol_665 20
     RDKit          3D

 12 12  0  0  0  0  0  0  0  0999 V2000
    2.4053   -1.2948   -0.0484 F   0  0  0  0  0  0  0  0  0  0  0  0
    1.2142   -0.6823   -0.0260 C   0  0  0  0  0  0  0  0  0  0  0  0
    0.0526   -1.4468   -0.0803 C   0  0  0  0  0  0  0  0  0  0  0  0
   -1.1899   -0.8140   -0.0573 C   0  0  0  0  0  0  0  0  0  0  0  0
   -1.2581    0.5791    0.0198 C   0  0  0  0  0  0  0  0  0  0  0  0
   -0.0821    1.3307    0.0735 C   0  0  0  0  0  0  0  0  0  0  0  0
   -0.1798    3.2157    0.1778 Br  0  0  0  0  0  0  0  0  0  0  0  0
    1.1611    0.7043    0.0509 C   0  0  0  0  0  0  0  0  0  0  0  0
    0.1242   -2.5284   -0.1400 H   0  0  0  0  0  0  0  0  0  0  0  0
   -2.1027   -1.4031   -0.0993 H   0  0  0  0  0  0  0  0  0  0  0  0
   -2.2292    1.0680    0.0374 H   0  0  0  0  0  0  0  0  0  0  0  0
    2.0845    1.2718    0.0918 H   0  0  0  0  0  0  0  0  0  0  0  0
  1  2  1  0
  2  3  2  0
  3  4  1  0
  4  5  2  0
  5  6  1  0
  6  7  1  0
  6  8  2  0
  8  2  1  0
  3  9  1  0
  4 10  1  0
  5 11  1  0
  8 12  1  0
M  END
>  <Energy>  (1) 
7.745739706990787

>  <Real charge>  (1) 
0

>  <Mult>  (1) 
1

$$$$
