mol_806 85
     RDKit          3D

 12 12  0  0  0  0  0  0  0  0999 V2000
    2.0473   -1.1777    0.8170 O   0  0  0  0  0  0  0  0  0  0  0  0
    1.0919   -0.5424    0.4040 C   0  0  0  0  0  0  0  0  0  0  0  0
   -0.3200   -1.0421    0.3262 C   0  0  0  0  0  0  0  0  0  0  0  0
   -1.1020    0.1283   -0.2526 C   0  0  0  0  0  0  0  0  0  0  0  0
   -0.0712    1.1983   -0.4568 C   0  0  0  0  0  0  0  0  0  0  0  0
   -0.2837    2.3109   -0.9082 O   0  0  0  0  0  0  0  0  0  0  0  0
    1.1358    0.7298   -0.0587 N   0  0  0  0  0  0  0  0  0  0  0  0
   -0.3703   -1.9177   -0.3273 H   0  0  0  0  0  0  0  0  0  0  0  0
   -0.6779   -1.3059    1.3254 H   0  0  0  0  0  0  0  0  0  0  0  0
   -1.8700    0.4781    0.4432 H   0  0  0  0  0  0  0  0  0  0  0  0
   -1.5623   -0.1336   -1.2096 H   0  0  0  0  0  0  0  0  0  0  0  0
    1.9825    1.2739   -0.1025 H   0  0  0  0  0  0  0  0  0  0  0  0
  1  2  2  0
  2  3  1  0
  3  4  1  0
  4  5  1  0
  5  6  2  0
  5  7  1  0
  7  2  1  0
  3  8  1  0
  3  9  1  0
  4 10  1  0
  4 11  1  0
  7 12  1  0
M  END
>  <Energy>  (1) 
-57.184084484401595

>  <Real charge>  (1) 
0

>  <Mult>  (1) 
1

$$$$
