mol_941 45
     RDKit          3D

  7  6  0  0  0  0  0  0  0  0999 V2000
   -0.6527   -0.0338    0.0044 C   0  0  0  0  0  0  0  0  0  0  0  0
    0.8325    0.0448   -0.0131 N   0  0  0  0  0  4  0  0  0  0  0  0
    1.4478   -1.0008   -0.2530 O   0  0  0  0  0  1  0  0  0  0  0  0
    1.3399    1.1454    0.2332 O   0  0  0  0  0  0  0  0  0  0  0  0
   -0.9645   -0.8113   -0.6963 H   0  0  0  0  0  0  0  0  0  0  0  0
   -1.0523    0.9357   -0.3006 H   0  0  0  0  0  0  0  0  0  0  0  0
   -0.9506   -0.2800    1.0253 H   0  0  0  0  0  0  0  0  0  0  0  0
  1  2  1  0
  2  3  1  0
  2  4  2  0
  1  5  1  0
  1  6  1  0
  1  7  1  0
M  CHG  2   2   1   3  -1
M  END
>  <Energy>  (1) 
2.785475227402757

>  <Real charge>  (1) 
0

>  <Mult>  (1) 
1

$$$$
