mol_656 51
     RDKit          3D

 51 54  0  0  0  0  0  0  0  0999 V2000
    1.7174   -1.4824   -0.9603 C   0  0  0  0  0  0  0  0  0  0  0  0
    1.4512   -0.3390    0.0534 C   0  0  0  0  0  0  0  0  0  0  0  0
    2.2544   -0.6414    1.3521 C   0  0  0  0  0  0  0  0  0  0  0  0
    3.7713   -0.5612    1.1658 C   0  0  0  0  0  0  0  0  0  0  0  0
    4.2137    0.7679    0.5612 C   0  0  0  0  0  0  0  0  0  0  0  0
    5.6041    0.7184    0.2599 O   0  0  0  0  0  0  0  0  0  0  0  0
    3.4497    1.1020   -0.7182 C   0  0  0  0  0  0  0  0  0  0  0  0
    1.9346    1.0444   -0.4873 C   0  0  0  0  0  0  0  0  0  0  0  0
    1.1622    1.4795   -1.7360 C   0  0  0  0  0  0  0  0  0  0  0  0
   -0.3291    1.5838   -1.4318 C   0  0  0  0  0  0  0  0  0  0  0  0
   -0.9083    0.2851   -0.8478 C   0  0  0  0  0  0  0  0  0  0  0  0
   -0.0894   -0.2181    0.3732 C   0  0  0  0  0  0  0  0  0  0  0  0
   -0.7138   -1.5170    0.9187 C   0  0  0  0  0  0  0  0  0  0  0  0
   -2.1770   -1.3236    1.3055 C   0  0  0  0  0  0  0  0  0  0  0  0
   -3.0404   -0.8034    0.1473 C   0  0  0  0  0  0  0  0  0  0  0  0
   -3.3863   -1.9079   -0.8519 C   0  0  0  0  0  0  0  0  0  0  0  0
   -2.4198    0.4276   -0.5550 C   0  0  0  0  0  0  0  0  0  0  0  0
   -2.8221    1.6051    0.3453 C   0  0  0  0  0  0  0  0  0  0  0  0
   -4.2714    1.3160    0.7195 C   0  0  0  0  0  0  0  0  0  0  0  0
   -4.3062   -0.1906    0.7339 C   0  0  0  0  0  0  0  0  0  0  0  0
   -5.2498   -0.8375    1.1725 O   0  0  0  0  0  0  0  0  0  0  0  0
    1.1186   -1.3875   -1.8694 H   0  0  0  0  0  0  0  0  0  0  0  0
    2.7627   -1.5234   -1.2788 H   0  0  0  0  0  0  0  0  0  0  0  0
    1.4916   -2.4604   -0.5219 H   0  0  0  0  0  0  0  0  0  0  0  0
    2.0127   -1.6397    1.7343 H   0  0  0  0  0  0  0  0  0  0  0  0
    1.9628    0.0706    2.1353 H   0  0  0  0  0  0  0  0  0  0  0  0
    4.1264   -1.3917    0.5436 H   0  0  0  0  0  0  0  0  0  0  0  0
    4.2664   -0.7021    2.1348 H   0  0  0  0  0  0  0  0  0  0  0  0
    4.0615    1.5720    1.2914 H   0  0  0  0  0  0  0  0  0  0  0  0
    6.0764    0.5130    1.0848 H   0  0  0  0  0  0  0  0  0  0  0  0
    3.7420    2.1070   -1.0501 H   0  0  0  0  0  0  0  0  0  0  0  0
    3.7569    0.4354   -1.5329 H   0  0  0  0  0  0  0  0  0  0  0  0
    1.7178    1.7934    0.2907 H   0  0  0  0  0  0  0  0  0  0  0  0
    1.3315    0.7851   -2.5664 H   0  0  0  0  0  0  0  0  0  0  0  0
    1.5207    2.4596   -2.0736 H   0  0  0  0  0  0  0  0  0  0  0  0
   -0.4758    2.4123   -0.7284 H   0  0  0  0  0  0  0  0  0  0  0  0
   -0.8660    1.8506   -2.3500 H   0  0  0  0  0  0  0  0  0  0  0  0
   -0.8310   -0.4772   -1.6342 H   0  0  0  0  0  0  0  0  0  0  0  0
   -0.1846    0.5382    1.1659 H   0  0  0  0  0  0  0  0  0  0  0  0
   -0.6446   -2.3208    0.1781 H   0  0  0  0  0  0  0  0  0  0  0  0
   -0.1744   -1.8579    1.8082 H   0  0  0  0  0  0  0  0  0  0  0  0
   -2.5811   -2.2736    1.6785 H   0  0  0  0  0  0  0  0  0  0  0  0
   -2.2237   -0.6343    2.1595 H   0  0  0  0  0  0  0  0  0  0  0  0
   -4.0915   -1.5490   -1.6106 H   0  0  0  0  0  0  0  0  0  0  0  0
   -2.4971   -2.2797   -1.3703 H   0  0  0  0  0  0  0  0  0  0  0  0
   -3.8639   -2.7577   -0.3512 H   0  0  0  0  0  0  0  0  0  0  0  0
   -2.9275    0.5815   -1.5199 H   0  0  0  0  0  0  0  0  0  0  0  0
   -2.2036    1.6523    1.2483 H   0  0  0  0  0  0  0  0  0  0  0  0
   -2.7397    2.5693   -0.1659 H   0  0  0  0  0  0  0  0  0  0  0  0
   -4.9611    1.6789   -0.0478 H   0  0  0  0  0  0  0  0  0  0  0  0
   -4.5270    1.7277    1.6981 H   0  0  0  0  0  0  0  0  0  0  0  0
  1  2  1  0
  2  3  1  0
  3  4  1  0
  4  5  1  0
  5  6  1  0
  5  7  1  0
  7  8  1  0
  8  9  1  0
  9 10  1  0
 10 11  1  0
 11 12  1  0
 12 13  1  0
 13 14  1  0
 14 15  1  0
 15 16  1  0
 15 17  1  0
 17 18  1  0
 18 19  1  0
 19 20  1  0
 20 21  2  0
  8  2  1  0
 12  2  1  0
 17 11  1  0
 20 15  1  0
  1 22  1  0
  1 23  1  0
  1 24  1  0
  3 25  1  0
  3 26  1  0
  4 27  1  0
  4 28  1  0
  5 29  1  0
  6 30  1  0
  7 31  1  0
  7 32  1  0
  8 33  1  0
  9 34  1  0
  9 35  1  0
 10 36  1  0
 10 37  1  0
 11 38  1  0
 12 39  1  0
 13 40  1  0
 13 41  1  0
 14 42  1  0
 14 43  1  0
 16 44  1  0
 16 45  1  0
 16 46  1  0
 17 47  1  0
 18 48  1  0
 18 49  1  0
 19 50  1  0
 19 51  1  0
M  END
>  <Energy>  (1) 
61.64329823038182

>  <Real charge>  (1) 
0

>  <Mult>  (1) 
1

$$$$
mol_656 407
     RDKit          3D

 51 54  0  0  0  0  0  0  0  0999 V2000
   -1.8615   -2.0391    0.9621 C   0  0  0  0  0  0  0  0  0  0  0  0
   -1.4134   -0.6373    0.4605 C   0  0  0  0  0  0  0  0  0  0  0  0
   -1.9233    0.4354    1.4639 C   0  0  0  0  0  0  0  0  0  0  0  0
   -3.4460    0.5714    1.5007 C   0  0  0  0  0  0  0  0  0  0  0  0
   -4.0418    0.8177    0.1206 C   0  0  0  0  0  0  0  0  0  0  0  0
   -5.4619    0.7817    0.2295 O   0  0  0  0  0  0  0  0  0  0  0  0
   -3.5819   -0.2302   -0.8910 C   0  0  0  0  0  0  0  0  0  0  0  0
   -2.0496   -0.3852   -0.9484 C   0  0  0  0  0  0  0  0  0  0  0  0
   -1.4395    0.8314   -1.6661 C   0  0  0  0  0  0  0  0  0  0  0  0
    0.0694    0.7097   -1.7940 C   0  0  0  0  0  0  0  0  0  0  0  0
    0.7326    0.5734   -0.4204 C   0  0  0  0  0  0  0  0  0  0  0  0
    0.1657   -0.6445    0.3498 C   0  0  0  0  0  0  0  0  0  0  0  0
    0.8793   -0.7672    1.7128 C   0  0  0  0  0  0  0  0  0  0  0  0
    2.3918   -0.8924    1.5576 C   0  0  0  0  0  0  0  0  0  0  0  0
    3.0115    0.2767    0.7803 C   0  0  0  0  0  0  0  0  0  0  0  0
    3.1383    1.5356    1.6388 C   0  0  0  0  0  0  0  0  0  0  0  0
    2.2734    0.5636   -0.5476 C   0  0  0  0  0  0  0  0  0  0  0  0
    2.8599   -0.4673   -1.5238 C   0  0  0  0  0  0  0  0  0  0  0  0
    4.3521   -0.4753   -1.2125 C   0  0  0  0  0  0  0  0  0  0  0  0
    4.3753   -0.1625    0.2616 C   0  0  0  0  0  0  0  0  0  0  0  0
    5.3822   -0.2557    0.9533 O   0  0  0  0  0  0  0  0  0  0  0  0
   -1.4505   -2.8318    0.3267 H   0  0  0  0  0  0  0  0  0  0  0  0
   -2.9478   -2.1620    0.9628 H   0  0  0  0  0  0  0  0  0  0  0  0
   -1.5319   -2.2278    1.9884 H   0  0  0  0  0  0  0  0  0  0  0  0
   -1.4985    1.4157    1.2206 H   0  0  0  0  0  0  0  0  0  0  0  0
   -1.5859    0.1990    2.4800 H   0  0  0  0  0  0  0  0  0  0  0  0
   -3.7246    1.3963    2.1688 H   0  0  0  0  0  0  0  0  0  0  0  0
   -3.8988   -0.3206    1.9510 H   0  0  0  0  0  0  0  0  0  0  0  0
   -3.7686    1.8224   -0.2200 H   0  0  0  0  0  0  0  0  0  0  0  0
   -5.8287    0.9503   -0.6552 H   0  0  0  0  0  0  0  0  0  0  0  0
   -4.0512   -1.1938   -0.6571 H   0  0  0  0  0  0  0  0  0  0  0  0
   -3.9744    0.0275   -1.8836 H   0  0  0  0  0  0  0  0  0  0  0  0
   -1.8387   -1.2618   -1.5780 H   0  0  0  0  0  0  0  0  0  0  0  0
   -1.8718    0.9204   -2.6705 H   0  0  0  0  0  0  0  0  0  0  0  0
   -1.6793    1.7629   -1.1416 H   0  0  0  0  0  0  0  0  0  0  0  0
    0.3020   -0.1570   -2.4242 H   0  0  0  0  0  0  0  0  0  0  0  0
    0.4584    1.5951   -2.3110 H   0  0  0  0  0  0  0  0  0  0  0  0
    0.4819    1.4755    0.1543 H   0  0  0  0  0  0  0  0  0  0  0  0
    0.4283   -1.5409   -0.2308 H   0  0  0  0  0  0  0  0  0  0  0  0
    0.5270   -1.6491    2.2565 H   0  0  0  0  0  0  0  0  0  0  0  0
    0.6583    0.1018    2.3421 H   0  0  0  0  0  0  0  0  0  0  0  0
    2.6140   -1.8464    1.0607 H   0  0  0  0  0  0  0  0  0  0  0  0
    2.8525   -0.9694    2.5510 H   0  0  0  0  0  0  0  0  0  0  0  0
    2.1594    1.9355    1.9206 H   0  0  0  0  0  0  0  0  0  0  0  0
    3.6961    1.3307    2.5596 H   0  0  0  0  0  0  0  0  0  0  0  0
    3.6823    2.3247    1.1068 H   0  0  0  0  0  0  0  0  0  0  0  0
    2.5775    1.5552   -0.9177 H   0  0  0  0  0  0  0  0  0  0  0  0
    2.6832   -0.1992   -2.5702 H   0  0  0  0  0  0  0  0  0  0  0  0
    2.4374   -1.4646   -1.3594 H   0  0  0  0  0  0  0  0  0  0  0  0
    4.8039   -1.4479   -1.4184 H   0  0  0  0  0  0  0  0  0  0  0  0
    4.8759    0.3193   -1.7516 H   0  0  0  0  0  0  0  0  0  0  0  0
  1  2  1  0
  2  3  1  0
  3  4  1  0
  4  5  1  0
  5  6  1  0
  5  7  1  0
  7  8  1  0
  8  9  1  0
  9 10  1  0
 10 11  1  0
 11 12  1  0
 12 13  1  0
 13 14  1  0
 14 15  1  0
 15 16  1  0
 15 17  1  0
 17 18  1  0
 18 19  1  0
 19 20  1  0
 20 21  2  0
  8  2  1  0
 12  2  1  0
 17 11  1  0
 20 15  1  0
  1 22  1  0
  1 23  1  0
  1 24  1  0
  3 25  1  0
  3 26  1  0
  4 27  1  0
  4 28  1  0
  5 29  1  0
  6 30  1  0
  7 31  1  0
  7 32  1  0
  8 33  1  0
  9 34  1  0
  9 35  1  0
 10 36  1  0
 10 37  1  0
 11 38  1  0
 12 39  1  0
 13 40  1  0
 13 41  1  0
 14 42  1  0
 14 43  1  0
 16 44  1  0
 16 45  1  0
 16 46  1  0
 17 47  1  0
 18 48  1  0
 18 49  1  0
 19 50  1  0
 19 51  1  0
M  END
>  <Energy>  (2) 
62.07683916025388

>  <Real charge>  (2) 
0

>  <Mult>  (2) 
1

$$$$
mol_656 255
     RDKit          3D

 51 54  0  0  0  0  0  0  0  0999 V2000
    1.5107    0.9880    1.3851 C   0  0  0  0  0  0  0  0  0  0  0  0
    1.4545    0.4485   -0.0676 C   0  0  0  0  0  0  0  0  0  0  0  0
    2.2974    1.3940   -0.9735 C   0  0  0  0  0  0  0  0  0  0  0  0
    3.7980    1.3503   -0.6757 C   0  0  0  0  0  0  0  0  0  0  0  0
    4.3588   -0.0670   -0.7158 C   0  0  0  0  0  0  0  0  0  0  0  0
    5.7135   -0.0329   -0.2800 O   0  0  0  0  0  0  0  0  0  0  0  0
    3.5597   -1.0271    0.1639 C   0  0  0  0  0  0  0  0  0  0  0  0
    2.0673   -0.9816   -0.1867 C   0  0  0  0  0  0  0  0  0  0  0  0
    1.2744   -2.0158    0.6139 C   0  0  0  0  0  0  0  0  0  0  0  0
   -0.1745   -2.0698    0.1398 C   0  0  0  0  0  0  0  0  0  0  0  0
   -0.8738   -0.6956    0.1693 C   0  0  0  0  0  0  0  0  0  0  0  0
   -0.0349    0.3739   -0.5797 C   0  0  0  0  0  0  0  0  0  0  0  0
   -0.7773    1.7175   -0.5175 C   0  0  0  0  0  0  0  0  0  0  0  0
   -2.1191    1.6281   -1.2307 C   0  0  0  0  0  0  0  0  0  0  0  0
   -3.0330    0.5258   -0.6953 C   0  0  0  0  0  0  0  0  0  0  0  0
   -4.2139    0.3458   -1.6677 C   0  0  0  0  0  0  0  0  0  0  0  0
   -2.3219   -0.8202   -0.3973 C   0  0  0  0  0  0  0  0  0  0  0  0
   -3.2597   -1.4888    0.6293 C   0  0  0  0  0  0  0  0  0  0  0  0
   -3.7018   -0.3641    1.5618 C   0  0  0  0  0  0  0  0  0  0  0  0
   -3.6275    0.8502    0.6702 C   0  0  0  0  0  0  0  0  0  0  0  0
   -4.0187    1.9592    1.0133 O   0  0  0  0  0  0  0  0  0  0  0  0
    2.5222    0.9669    1.7998 H   0  0  0  0  0  0  0  0  0  0  0  0
    0.8810    0.4162    2.0714 H   0  0  0  0  0  0  0  0  0  0  0  0
    1.1793    2.0310    1.4319 H   0  0  0  0  0  0  0  0  0  0  0  0
    1.9642    2.4326   -0.8689 H   0  0  0  0  0  0  0  0  0  0  0  0
    2.1440    1.1223   -2.0262 H   0  0  0  0  0  0  0  0  0  0  0  0
    4.3343    1.9729   -1.4030 H   0  0  0  0  0  0  0  0  0  0  0  0
    4.0088    1.8092    0.2980 H   0  0  0  0  0  0  0  0  0  0  0  0
    4.3531   -0.4260   -1.7521 H   0  0  0  0  0  0  0  0  0  0  0  0
    6.0597   -0.9404   -0.3250 H   0  0  0  0  0  0  0  0  0  0  0  0
    3.7302   -0.8056    1.2242 H   0  0  0  0  0  0  0  0  0  0  0  0
    3.9485   -2.0437    0.0204 H   0  0  0  0  0  0  0  0  0  0  0  0
    1.9944   -1.2826   -1.2438 H   0  0  0  0  0  0  0  0  0  0  0  0
    1.3118   -1.7965    1.6868 H   0  0  0  0  0  0  0  0  0  0  0  0
    1.7222   -3.0090    0.4857 H   0  0  0  0  0  0  0  0  0  0  0  0
   -0.1958   -2.4680   -0.8831 H   0  0  0  0  0  0  0  0  0  0  0  0
   -0.7127   -2.7907    0.7640 H   0  0  0  0  0  0  0  0  0  0  0  0
   -0.9462   -0.3905    1.2203 H   0  0  0  0  0  0  0  0  0  0  0  0
    0.0077    0.0721   -1.6375 H   0  0  0  0  0  0  0  0  0  0  0  0
   -0.1963    2.5091   -0.9999 H   0  0  0  0  0  0  0  0  0  0  0  0
   -0.9379    2.0267    0.5217 H   0  0  0  0  0  0  0  0  0  0  0  0
   -1.9261    1.4546   -2.2980 H   0  0  0  0  0  0  0  0  0  0  0  0
   -2.6172    2.6037   -1.1643 H   0  0  0  0  0  0  0  0  0  0  0  0
   -4.7161    1.3032   -1.8515 H   0  0  0  0  0  0  0  0  0  0  0  0
   -4.9775   -0.3372   -1.2812 H   0  0  0  0  0  0  0  0  0  0  0  0
   -3.8713   -0.0444   -2.6323 H   0  0  0  0  0  0  0  0  0  0  0  0
   -2.2817   -1.4262   -1.3118 H   0  0  0  0  0  0  0  0  0  0  0  0
   -4.1331   -1.9120    0.1184 H   0  0  0  0  0  0  0  0  0  0  0  0
   -2.7997   -2.3077    1.1879 H   0  0  0  0  0  0  0  0  0  0  0  0
   -4.7195   -0.5208    1.9261 H   0  0  0  0  0  0  0  0  0  0  0  0
   -3.0087   -0.2375    2.3979 H   0  0  0  0  0  0  0  0  0  0  0  0
  1  2  1  0
  2  3  1  0
  3  4  1  0
  4  5  1  0
  5  6  1  0
  5  7  1  0
  7  8  1  0
  8  9  1  0
  9 10  1  0
 10 11  1  0
 11 12  1  0
 12 13  1  0
 13 14  1  0
 14 15  1  0
 15 16  1  0
 15 17  1  0
 17 18  1  0
 18 19  1  0
 19 20  1  0
 20 21  2  0
  8  2  1  0
 12  2  1  0
 17 11  1  0
 20 15  1  0
  1 22  1  0
  1 23  1  0
  1 24  1  0
  3 25  1  0
  3 26  1  0
  4 27  1  0
  4 28  1  0
  5 29  1  0
  6 30  1  0
  7 31  1  0
  7 32  1  0
  8 33  1  0
  9 34  1  0
  9 35  1  0
 10 36  1  0
 10 37  1  0
 11 38  1  0
 12 39  1  0
 13 40  1  0
 13 41  1  0
 14 42  1  0
 14 43  1  0
 16 44  1  0
 16 45  1  0
 16 46  1  0
 17 47  1  0
 18 48  1  0
 18 49  1  0
 19 50  1  0
 19 51  1  0
M  END
>  <Energy>  (3) 
62.39243038580726

>  <Real charge>  (3) 
0

>  <Mult>  (3) 
1

$$$$
