mol_738 131
     RDKit          3D

 19 19  0  0  0  0  0  0  0  0999 V2000
    3.3514   -0.0705   -0.2270 C   0  0  0  0  0  0  0  0  0  0  0  0
    1.9133    0.3165   -0.5221 C   0  0  0  0  0  0  0  0  0  0  0  0
    1.0699   -0.4181    0.3628 O   0  0  0  0  0  0  0  0  0  0  0  0
   -0.2775   -0.2087    0.2549 C   0  0  0  0  0  0  0  0  0  0  0  0
   -0.9061    0.6574   -0.6410 C   0  0  0  0  0  0  0  0  0  0  0  0
   -2.2999    0.7748   -0.6435 C   0  0  0  0  0  0  0  0  0  0  0  0
   -3.0698    0.0288    0.2473 C   0  0  0  0  0  0  0  0  0  0  0  0
   -2.4476   -0.8369    1.1432 C   0  0  0  0  0  0  0  0  0  0  0  0
   -1.0565   -0.9532    1.1448 C   0  0  0  0  0  0  0  0  0  0  0  0
    3.4975   -1.1468   -0.3667 H   0  0  0  0  0  0  0  0  0  0  0  0
    3.6048    0.1530    0.8146 H   0  0  0  0  0  0  0  0  0  0  0  0
    4.0422    0.4677   -0.8820 H   0  0  0  0  0  0  0  0  0  0  0  0
    1.7920    1.3933   -0.3573 H   0  0  0  0  0  0  0  0  0  0  0  0
    1.6823    0.0658   -1.5639 H   0  0  0  0  0  0  0  0  0  0  0  0
   -0.3436    1.2551   -1.3498 H   0  0  0  0  0  0  0  0  0  0  0  0
   -2.7847    1.4509   -1.3433 H   0  0  0  0  0  0  0  0  0  0  0  0
   -4.1525    0.1222    0.2430 H   0  0  0  0  0  0  0  0  0  0  0  0
   -3.0415   -1.4215    1.8404 H   0  0  0  0  0  0  0  0  0  0  0  0
   -0.5736   -1.6299    1.8455 H   0  0  0  0  0  0  0  0  0  0  0  0
  1  2  1  0
  2  3  1  0
  3  4  1  0
  4  5  2  0
  5  6  1  0
  6  7  2  0
  7  8  1  0
  8  9  2  0
  9  4  1  0
  1 10  1  0
  1 11  1  0
  1 12  1  0
  2 13  1  0
  2 14  1  0
  5 15  1  0
  6 16  1  0
  7 17  1  0
  8 18  1  0
  9 19  1  0
M  END
>  <Energy>  (1) 
18.286757000616678

>  <Real charge>  (1) 
0

>  <Mult>  (1) 
1

$$$$
