mol_472 159
     RDKit          3D

 26 27  0  0  0  0  0  0  0  0999 V2000
   -2.3556   -0.5368    0.8197 C   0  0  0  0  0  0  0  0  0  0  0  0
   -3.4264    0.3589    0.8419 C   0  0  0  0  0  0  0  0  0  0  0  0
   -3.4431    1.4499   -0.0249 C   0  0  0  0  0  0  0  0  0  0  0  0
   -2.3908    1.6472   -0.9164 C   0  0  0  0  0  0  0  0  0  0  0  0
   -1.3197    0.7532   -0.9412 C   0  0  0  0  0  0  0  0  0  0  0  0
   -1.2860   -0.3476   -0.0691 C   0  0  0  0  0  0  0  0  0  0  0  0
   -0.1327   -1.3364   -0.1047 C   0  0  0  0  0  0  0  0  0  0  0  0
   -0.1711   -2.0448   -1.3470 O   0  0  0  0  0  0  0  0  0  0  0  0
    1.2308   -0.7089    0.1392 C   0  0  0  0  0  0  0  0  0  0  0  0
    2.2384   -0.7134   -0.8384 C   0  0  0  0  0  0  0  0  0  0  0  0
    3.4826   -0.1306   -0.5867 C   0  0  0  0  0  0  0  0  0  0  0  0
    3.7391    0.4644    0.6462 C   0  0  0  0  0  0  0  0  0  0  0  0
    2.7530    0.4763    1.6296 C   0  0  0  0  0  0  0  0  0  0  0  0
    1.5091   -0.1071    1.3794 C   0  0  0  0  0  0  0  0  0  0  0  0
   -2.3626   -1.3838    1.5027 H   0  0  0  0  0  0  0  0  0  0  0  0
   -4.2487    0.2057    1.5363 H   0  0  0  0  0  0  0  0  0  0  0  0
   -4.2764    2.1476   -0.0054 H   0  0  0  0  0  0  0  0  0  0  0  0
   -2.4020    2.4986   -1.5921 H   0  0  0  0  0  0  0  0  0  0  0  0
   -0.5033    0.9193   -1.6423 H   0  0  0  0  0  0  0  0  0  0  0  0
   -0.2777   -2.0980    0.6718 H   0  0  0  0  0  0  0  0  0  0  0  0
   -1.0771   -1.9670   -1.6898 H   0  0  0  0  0  0  0  0  0  0  0  0
    2.0601   -1.1765   -1.8069 H   0  0  0  0  0  0  0  0  0  0  0  0
    4.2511   -0.1441   -1.3551 H   0  0  0  0  0  0  0  0  0  0  0  0
    4.7074    0.9176    0.8404 H   0  0  0  0  0  0  0  0  0  0  0  0
    2.9509    0.9407    2.5920 H   0  0  0  0  0  0  0  0  0  0  0  0
    0.7506   -0.0843    2.1592 H   0  0  0  0  0  0  0  0  0  0  0  0
  1  2  2  0
  2  3  1  0
  3  4  2  0
  4  5  1  0
  5  6  2  0
  6  7  1  0
  7  8  1  0
  7  9  1  0
  9 10  2  0
 10 11  1  0
 11 12  2  0
 12 13  1  0
 13 14  2  0
  6  1  1  0
 14  9  1  0
  1 15  1  0
  2 16  1  0
  3 17  1  0
  4 18  1  0
  5 19  1  0
  7 20  1  0
  8 21  1  0
 10 22  1  0
 11 23  1  0
 12 24  1  0
 13 25  1  0
 14 26  1  0
M  END
>  <Energy>  (1) 
46.9230322107616

>  <Real charge>  (1) 
0

>  <Mult>  (1) 
1

$$$$
