mol_115 67
     RDKit          3D

 26 28  0  0  0  0  0  0  0  0999 V2000
    4.5064    0.9985   -0.5103 N   0  0  0  0  0  0  0  0  0  0  0  0
    3.2682    0.3628   -0.3572 C   0  0  0  0  0  0  0  0  0  0  0  0
    3.2054   -0.9474    0.1148 C   0  0  0  0  0  0  0  0  0  0  0  0
    1.9733   -1.5516    0.3808 C   0  0  0  0  0  0  0  0  0  0  0  0
    0.7763   -0.8385    0.2209 C   0  0  0  0  0  0  0  0  0  0  0  0
   -0.4710   -1.4297    0.4829 C   0  0  0  0  0  0  0  0  0  0  0  0
   -1.6672   -0.7076    0.3384 C   0  0  0  0  0  0  0  0  0  0  0  0
   -2.9154   -1.2971    0.5992 C   0  0  0  0  0  0  0  0  0  0  0  0
   -4.0952   -0.5660    0.4530 C   0  0  0  0  0  0  0  0  0  0  0  0
   -4.0427    0.7631    0.0449 C   0  0  0  0  0  0  0  0  0  0  0  0
   -2.8102    1.3631   -0.2178 C   0  0  0  0  0  0  0  0  0  0  0  0
   -1.6139    0.6405   -0.0758 C   0  0  0  0  0  0  0  0  0  0  0  0
   -0.3658    1.2304   -0.3366 C   0  0  0  0  0  0  0  0  0  0  0  0
    0.8307    0.5065   -0.1975 C   0  0  0  0  0  0  0  0  0  0  0  0
    2.0817    1.0950   -0.4598 C   0  0  0  0  0  0  0  0  0  0  0  0
    5.2682    0.3638   -0.7280 H   0  0  0  0  0  0  0  0  0  0  0  0
    4.4820    1.7988   -1.1343 H   0  0  0  0  0  0  0  0  0  0  0  0
    4.1173   -1.5148    0.2795 H   0  0  0  0  0  0  0  0  0  0  0  0
    1.9588   -2.5820    0.7282 H   0  0  0  0  0  0  0  0  0  0  0  0
   -0.5112   -2.4678    0.8073 H   0  0  0  0  0  0  0  0  0  0  0  0
   -2.9769   -2.3346    0.9200 H   0  0  0  0  0  0  0  0  0  0  0  0
   -5.0538   -1.0351    0.6586 H   0  0  0  0  0  0  0  0  0  0  0  0
   -4.9601    1.3346   -0.0691 H   0  0  0  0  0  0  0  0  0  0  0  0
   -2.7896    2.4032   -0.5353 H   0  0  0  0  0  0  0  0  0  0  0  0
   -0.3246    2.2704   -0.6550 H   0  0  0  0  0  0  0  0  0  0  0  0
    2.1292    2.1414   -0.7519 H   0  0  0  0  0  0  0  0  0  0  0  0
  1  2  1  0
  2  3  2  0
  3  4  1  0
  4  5  2  0
  5  6  1  0
  6  7  2  0
  7  8  1  0
  8  9  2  0
  9 10  1  0
 10 11  2  0
 11 12  1  0
 12 13  2  0
 13 14  1  0
 14 15  2  0
 12  7  1  0
 14  5  1  0
 15  2  1  0
  1 16  1  0
  1 17  1  0
  3 18  1  0
  4 19  1  0
  6 20  1  0
  8 21  1  0
  9 22  1  0
 10 23  1  0
 11 24  1  0
 13 25  1  0
 15 26  1  0
M  END
>  <Energy>  (1) 
33.39197847503616

>  <Real charge>  (1) 
0

>  <Mult>  (1) 
1

$$$$
