mol_387 148
     RDKit          3D

 10 10  0  0  0  0  0  0  0  0999 V2000
    2.0597    0.1348    0.1212 N   0  0  0  0  0  0  0  0  0  0  0  0
    0.7183    0.1020    0.0557 C   0  0  0  0  0  0  0  0  0  0  0  0
   -0.0142   -0.6951    0.7934 N   0  0  0  0  0  0  0  0  0  0  0  0
   -1.3511   -0.5057    0.5033 C   0  0  0  0  0  0  0  0  0  0  0  0
   -1.6208    0.4317   -0.4691 C   0  0  0  0  0  0  0  0  0  0  0  0
   -0.1505    1.1011   -1.0397 S   0  0  0  0  0  0  0  0  0  0  0  0
    2.4789   -0.6758    0.5632 H   0  0  0  0  0  0  0  0  0  0  0  0
    2.5529    0.4476   -0.7057 H   0  0  0  0  0  0  0  0  0  0  0  0
   -2.0948   -1.0852    1.0361 H   0  0  0  0  0  0  0  0  0  0  0  0
   -2.5784    0.7446   -0.8584 H   0  0  0  0  0  0  0  0  0  0  0  0
  1  2  1  0
  2  3  2  0
  3  4  1  0
  4  5  2  0
  5  6  1  0
  6  2  1  0
  1  7  1  0
  1  8  1  0
  4  9  1  0
  5 10  1  0
M  END
>  <Energy>  (1) 
-37.7251166548243

>  <Real charge>  (1) 
0

>  <Mult>  (1) 
1

$$$$
