mol_773 77
     RDKit          3D

 27 27  0  0  0  0  0  0  0  0999 V2000
   -0.8378   -0.7017   -2.1449 O   0  0  0  0  0  0  0  0  0  0  0  0
   -0.3853    0.0552   -1.2860 C   0  0  0  0  0  0  0  0  0  0  0  0
   -0.0750    1.3441   -1.6152 N   0  0  0  0  0  0  0  0  0  0  0  0
    0.3539    2.3140   -0.7665 C   0  0  0  0  0  0  0  0  0  0  0  0
    0.4766    3.4782   -1.1330 O   0  0  0  0  0  0  0  0  0  0  0  0
    0.5976    1.9434    0.5165 N   0  0  0  0  0  0  0  0  0  0  0  0
    0.2438    0.7507    1.0788 C   0  0  0  0  0  0  0  0  0  0  0  0
    0.2362    0.6300    2.3037 O   0  0  0  0  0  0  0  0  0  0  0  0
   -0.0792   -0.3885    0.1311 C   0  0  0  0  0  0  0  0  0  0  0  0
    1.1511   -1.3344    0.0887 C   0  0  0  0  0  0  0  0  0  0  0  0
    2.4129   -0.7349   -0.4819 C   0  0  0  0  0  0  0  0  0  0  0  0
    3.4718   -0.3820    0.2573 C   0  0  0  0  0  0  0  0  0  0  0  0
   -1.2908   -1.1856    0.6790 C   0  0  0  0  0  0  0  0  0  0  0  0
   -2.5481   -0.3665    0.8463 C   0  0  0  0  0  0  0  0  0  0  0  0
   -3.6006   -0.4360    0.0220 C   0  0  0  0  0  0  0  0  0  0  0  0
   -0.2891    1.6346   -2.5588 H   0  0  0  0  0  0  0  0  0  0  0  0
    0.8185    2.6927    1.1573 H   0  0  0  0  0  0  0  0  0  0  0  0
    1.3570   -1.7084    1.1015 H   0  0  0  0  0  0  0  0  0  0  0  0
    0.9164   -2.2229   -0.5133 H   0  0  0  0  0  0  0  0  0  0  0  0
    2.4659   -0.6185   -1.5638 H   0  0  0  0  0  0  0  0  0  0  0  0
    3.4814   -0.4950    1.3381 H   0  0  0  0  0  0  0  0  0  0  0  0
    4.3648    0.0260   -0.2080 H   0  0  0  0  0  0  0  0  0  0  0  0
   -1.0494   -1.6164    1.6601 H   0  0  0  0  0  0  0  0  0  0  0  0
   -1.4999   -2.0436    0.0254 H   0  0  0  0  0  0  0  0  0  0  0  0
   -2.5992    0.2923    1.7127 H   0  0  0  0  0  0  0  0  0  0  0  0
   -4.4897    0.1614    0.2008 H   0  0  0  0  0  0  0  0  0  0  0  0
   -3.6037   -1.0882   -0.8475 H   0  0  0  0  0  0  0  0  0  0  0  0
  1  2  2  0
  2  3  1  0
  3  4  1  0
  4  5  2  0
  4  6  1  0
  6  7  1  0
  7  8  2  0
  7  9  1  0
  9 10  1  0
 10 11  1  0
 11 12  2  3
  9 13  1  0
 13 14  1  0
 14 15  2  3
  9  2  1  0
  3 16  1  0
  6 17  1  0
 10 18  1  0
 10 19  1  0
 11 20  1  0
 12 21  1  0
 12 22  1  0
 13 23  1  0
 13 24  1  0
 14 25  1  0
 15 26  1  0
 15 27  1  0
M  END
>  <Energy>  (1) 
-113.4149960769659

>  <Real charge>  (1) 
0

>  <Mult>  (1) 
1

$$$$
mol_773 230
     RDKit          3D

 27 27  0  0  0  0  0  0  0  0999 V2000
    0.1178   -0.9017   -2.0010 O   0  0  0  0  0  0  0  0  0  0  0  0
   -0.1336   -0.0640   -1.1344 C   0  0  0  0  0  0  0  0  0  0  0  0
   -0.8036    1.0779   -1.4709 N   0  0  0  0  0  0  0  0  0  0  0  0
   -1.0207    2.1498   -0.6665 C   0  0  0  0  0  0  0  0  0  0  0  0
   -1.4812    3.1992   -1.1037 O   0  0  0  0  0  0  0  0  0  0  0  0
   -0.6605    2.0227    0.6369 N   0  0  0  0  0  0  0  0  0  0  0  0
    0.0769    1.0022    1.1653 C   0  0  0  0  0  0  0  0  0  0  0  0
    0.5573    1.1154    2.2927 O   0  0  0  0  0  0  0  0  0  0  0  0
    0.2095   -0.2561    0.3312 C   0  0  0  0  0  0  0  0  0  0  0  0
    1.6588   -0.7961    0.4411 C   0  0  0  0  0  0  0  0  0  0  0  0
    2.7200    0.1754   -0.0169 C   0  0  0  0  0  0  0  0  0  0  0  0
    3.3745    0.0735   -1.1802 C   0  0  0  0  0  0  0  0  0  0  0  0
   -0.7568   -1.3267    0.9061 C   0  0  0  0  0  0  0  0  0  0  0  0
   -2.2176   -0.9485    0.9150 C   0  0  0  0  0  0  0  0  0  0  0  0
   -3.1214   -1.4458    0.0617 C   0  0  0  0  0  0  0  0  0  0  0  0
   -1.0269    1.1974   -2.4488 H   0  0  0  0  0  0  0  0  0  0  0  0
   -0.7421    2.8576    1.2005 H   0  0  0  0  0  0  0  0  0  0  0  0
    1.8869   -1.0595    1.4828 H   0  0  0  0  0  0  0  0  0  0  0  0
    1.7534   -1.7327   -0.1255 H   0  0  0  0  0  0  0  0  0  0  0  0
    2.9804    0.9840    0.6655 H   0  0  0  0  0  0  0  0  0  0  0  0
    3.1606   -0.7230   -1.8883 H   0  0  0  0  0  0  0  0  0  0  0  0
    4.1447    0.7892   -1.4519 H   0  0  0  0  0  0  0  0  0  0  0  0
   -0.6323   -2.2664    0.3498 H   0  0  0  0  0  0  0  0  0  0  0  0
   -0.4789   -1.5579    1.9436 H   0  0  0  0  0  0  0  0  0  0  0  0
   -2.5504   -0.2550    1.6862 H   0  0  0  0  0  0  0  0  0  0  0  0
   -2.8482   -2.1553   -0.7150 H   0  0  0  0  0  0  0  0  0  0  0  0
   -4.1664   -1.1556    0.1248 H   0  0  0  0  0  0  0  0  0  0  0  0
  1  2  2  0
  2  3  1  0
  3  4  1  0
  4  5  2  0
  4  6  1  0
  6  7  1  0
  7  8  2  0
  7  9  1  0
  9 10  1  0
 10 11  1  0
 11 12  2  3
  9 13  1  0
 13 14  1  0
 14 15  2  3
  9  2  1  0
  3 16  1  0
  6 17  1  0
 10 18  1  0
 10 19  1  0
 11 20  1  0
 12 21  1  0
 12 22  1  0
 13 23  1  0
 13 24  1  0
 14 25  1  0
 15 26  1  0
 15 27  1  0
M  END
>  <Energy>  (2) 
-113.36735087511302

>  <Real charge>  (2) 
0

>  <Mult>  (2) 
1

$$$$
mol_773 119
     RDKit          3D

 27 27  0  0  0  0  0  0  0  0999 V2000
    0.0516    0.1886   -2.3731 O   0  0  0  0  0  0  0  0  0  0  0  0
   -0.0255    0.7920   -1.3051 C   0  0  0  0  0  0  0  0  0  0  0  0
   -0.1236    2.1556   -1.3032 N   0  0  0  0  0  0  0  0  0  0  0  0
   -0.7630    2.8549   -0.3299 C   0  0  0  0  0  0  0  0  0  0  0  0
   -1.2368    3.9653   -0.5449 O   0  0  0  0  0  0  0  0  0  0  0  0
   -0.9190    2.2352    0.8697 N   0  0  0  0  0  0  0  0  0  0  0  0
   -0.7669    0.8935    1.0922 C   0  0  0  0  0  0  0  0  0  0  0  0
   -1.2034    0.3975    2.1293 O   0  0  0  0  0  0  0  0  0  0  0  0
    0.0470    0.1254    0.0601 C   0  0  0  0  0  0  0  0  0  0  0  0
   -0.4321   -1.3444   -0.0059 C   0  0  0  0  0  0  0  0  0  0  0  0
   -1.8560   -1.5167   -0.4811 C   0  0  0  0  0  0  0  0  0  0  0  0
   -2.8766   -1.8587    0.3146 C   0  0  0  0  0  0  0  0  0  0  0  0
    1.5178    0.2149    0.5634 C   0  0  0  0  0  0  0  0  0  0  0  0
    2.5269   -0.5776   -0.2273 C   0  0  0  0  0  0  0  0  0  0  0  0
    3.2615   -1.5727    0.2856 C   0  0  0  0  0  0  0  0  0  0  0  0
   -0.1736    2.5812   -2.2198 H   0  0  0  0  0  0  0  0  0  0  0  0
   -1.4786    2.7323    1.5497 H   0  0  0  0  0  0  0  0  0  0  0  0
   -0.3144   -1.8170    0.9788 H   0  0  0  0  0  0  0  0  0  0  0  0
    0.1975   -1.9247   -0.6924 H   0  0  0  0  0  0  0  0  0  0  0  0
   -2.0411   -1.3851   -1.5468 H   0  0  0  0  0  0  0  0  0  0  0  0
   -3.8773   -1.9891   -0.0861 H   0  0  0  0  0  0  0  0  0  0  0  0
   -2.7410   -2.0126    1.3818 H   0  0  0  0  0  0  0  0  0  0  0  0
    1.8543    1.2610    0.5572 H   0  0  0  0  0  0  0  0  0  0  0  0
    1.5570   -0.0955    1.6173 H   0  0  0  0  0  0  0  0  0  0  0  0
    2.6676   -0.3140   -1.2751 H   0  0  0  0  0  0  0  0  0  0  0  0
    3.1708   -1.8808    1.3229 H   0  0  0  0  0  0  0  0  0  0  0  0
    3.9770   -2.1085   -0.3319 H   0  0  0  0  0  0  0  0  0  0  0  0
  1  2  2  0
  2  3  1  0
  3  4  1  0
  4  5  2  0
  4  6  1  0
  6  7  1  0
  7  8  2  0
  7  9  1  0
  9 10  1  0
 10 11  1  0
 11 12  2  3
  9 13  1  0
 13 14  1  0
 14 15  2  3
  9  2  1  0
  3 16  1  0
  6 17  1  0
 10 18  1  0
 10 19  1  0
 11 20  1  0
 12 21  1  0
 12 22  1  0
 13 23  1  0
 13 24  1  0
 14 25  1  0
 15 26  1  0
 15 27  1  0
M  END
>  <Energy>  (3) 
-113.06738242594895

>  <Real charge>  (3) 
0

>  <Mult>  (3) 
1

$$$$
mol_773 373
     RDKit          3D

 27 27  0  0  0  0  0  0  0  0999 V2000
   -0.1309    0.2951   -2.1771 O   0  0  0  0  0  0  0  0  0  0  0  0
    0.6200    0.0601   -1.2324 C   0  0  0  0  0  0  0  0  0  0  0  0
    1.9464   -0.1771   -1.4698 N   0  0  0  0  0  0  0  0  0  0  0  0
    2.9315    0.0002   -0.5512 C   0  0  0  0  0  0  0  0  0  0  0  0
    4.0962    0.1859   -0.8870 O   0  0  0  0  0  0  0  0  0  0  0  0
    2.5545    0.0391    0.7537 N   0  0  0  0  0  0  0  0  0  0  0  0
    1.2789    0.2870    1.1800 C   0  0  0  0  0  0  0  0  0  0  0  0
    1.0890    0.7122    2.3179 O   0  0  0  0  0  0  0  0  0  0  0  0
    0.1622   -0.0769    0.2125 C   0  0  0  0  0  0  0  0  0  0  0  0
   -1.0914    0.7903    0.4791 C   0  0  0  0  0  0  0  0  0  0  0  0
   -0.8515    2.2804    0.4044 C   0  0  0  0  0  0  0  0  0  0  0  0
   -1.2484    3.0537   -0.6137 C   0  0  0  0  0  0  0  0  0  0  0  0
   -0.1295   -1.5833    0.4798 C   0  0  0  0  0  0  0  0  0  0  0  0
   -1.3106   -2.1608   -0.2567 C   0  0  0  0  0  0  0  0  0  0  0  0
   -2.3891   -2.6747    0.3480 C   0  0  0  0  0  0  0  0  0  0  0  0
    2.2375   -0.0675   -2.4324 H   0  0  0  0  0  0  0  0  0  0  0  0
    3.2867    0.2998    1.4012 H   0  0  0  0  0  0  0  0  0  0  0  0
   -1.8928    0.5269   -0.2236 H   0  0  0  0  0  0  0  0  0  0  0  0
   -1.4896    0.5745    1.4798 H   0  0  0  0  0  0  0  0  0  0  0  0
   -0.3538    2.7456    1.2547 H   0  0  0  0  0  0  0  0  0  0  0  0
   -1.7591    2.6392   -1.4790 H   0  0  0  0  0  0  0  0  0  0  0  0
   -1.0672    4.1241   -0.6053 H   0  0  0  0  0  0  0  0  0  0  0  0
   -0.2651   -1.7363    1.5600 H   0  0  0  0  0  0  0  0  0  0  0  0
    0.7460   -2.1897    0.2090 H   0  0  0  0  0  0  0  0  0  0  0  0
   -1.2739   -2.1634   -1.3457 H   0  0  0  0  0  0  0  0  0  0  0  0
   -3.2110   -3.0799   -0.2356 H   0  0  0  0  0  0  0  0  0  0  0  0
   -2.4848   -2.7043    1.4293 H   0  0  0  0  0  0  0  0  0  0  0  0
  1  2  2  0
  2  3  1  0
  3  4  1  0
  4  5  2  0
  4  6  1  0
  6  7  1  0
  7  8  2  0
  7  9  1  0
  9 10  1  0
 10 11  1  0
 11 12  2  3
  9 13  1  0
 13 14  1  0
 14 15  2  3
  9  2  1  0
  3 16  1  0
  6 17  1  0
 10 18  1  0
 10 19  1  0
 11 20  1  0
 12 21  1  0
 12 22  1  0
 13 23  1  0
 13 24  1  0
 14 25  1  0
 15 26  1  0
 15 27  1  0
M  END
>  <Energy>  (4) 
-113.05479955788154

>  <Real charge>  (4) 
0

>  <Mult>  (4) 
1

$$$$
mol_773 130
     RDKit          3D

 27 27  0  0  0  0  0  0  0  0999 V2000
   -0.7233    1.5269    1.8969 O   0  0  0  0  0  0  0  0  0  0  0  0
   -1.0797    0.9256    0.8875 C   0  0  0  0  0  0  0  0  0  0  0  0
   -2.2284    1.2927    0.2385 N   0  0  0  0  0  0  0  0  0  0  0  0
   -3.0707    0.3678   -0.2957 C   0  0  0  0  0  0  0  0  0  0  0  0
   -4.2788    0.5668   -0.3661 O   0  0  0  0  0  0  0  0  0  0  0  0
   -2.5275   -0.8298   -0.6487 N   0  0  0  0  0  0  0  0  0  0  0  0
   -1.3740   -1.3116   -0.0851 C   0  0  0  0  0  0  0  0  0  0  0  0
   -1.2361   -2.5194    0.0829 O   0  0  0  0  0  0  0  0  0  0  0  0
   -0.3309   -0.2528    0.2665 C   0  0  0  0  0  0  0  0  0  0  0  0
    0.6980   -0.7980    1.2925 C   0  0  0  0  0  0  0  0  0  0  0  0
    1.6685   -1.8356    0.7818 C   0  0  0  0  0  0  0  0  0  0  0  0
    2.9989   -1.6823    0.7710 C   0  0  0  0  0  0  0  0  0  0  0  0
    0.3190    0.2162   -1.0657 C   0  0  0  0  0  0  0  0  0  0  0  0
    1.3272    1.3271   -0.9288 C   0  0  0  0  0  0  0  0  0  0  0  0
    1.1612    2.5563   -1.4335 C   0  0  0  0  0  0  0  0  0  0  0  0
   -2.7125    2.0733    0.6639 H   0  0  0  0  0  0  0  0  0  0  0  0
   -3.2164   -1.5387   -0.8667 H   0  0  0  0  0  0  0  0  0  0  0  0
    0.1575   -1.2456    2.1382 H   0  0  0  0  0  0  0  0  0  0  0  0
    1.2691    0.0350    1.7244 H   0  0  0  0  0  0  0  0  0  0  0  0
    1.2516   -2.7790    0.4310 H   0  0  0  0  0  0  0  0  0  0  0  0
    3.6445   -2.4763    0.4071 H   0  0  0  0  0  0  0  0  0  0  0  0
    3.4763   -0.7761    1.1307 H   0  0  0  0  0  0  0  0  0  0  0  0
   -0.4573    0.5309   -1.7769 H   0  0  0  0  0  0  0  0  0  0  0  0
    0.8136   -0.6316   -1.5577 H   0  0  0  0  0  0  0  0  0  0  0  0
    2.2517    1.1027   -0.3999 H   0  0  0  0  0  0  0  0  0  0  0  0
    1.9299    3.3137   -1.3070 H   0  0  0  0  0  0  0  0  0  0  0  0
    0.2685    2.8416   -1.9811 H   0  0  0  0  0  0  0  0  0  0  0  0
  1  2  2  0
  2  3  1  0
  3  4  1  0
  4  5  2  0
  4  6  1  0
  6  7  1  0
  7  8  2  0
  7  9  1  0
  9 10  1  0
 10 11  1  0
 11 12  2  3
  9 13  1  0
 13 14  1  0
 14 15  2  3
  9  2  1  0
  3 16  1  0
  6 17  1  0
 10 18  1  0
 10 19  1  0
 11 20  1  0
 12 21  1  0
 12 22  1  0
 13 23  1  0
 13 24  1  0
 14 25  1  0
 15 26  1  0
 15 27  1  0
M  END
>  <Energy>  (5) 
-112.94866936956608

>  <Real charge>  (5) 
0

>  <Mult>  (5) 
1

$$$$
mol_773 96
     RDKit          3D

 27 27  0  0  0  0  0  0  0  0999 V2000
    1.2568    0.4102    2.2236 O   0  0  0  0  0  0  0  0  0  0  0  0
    0.5443    0.7992    1.3001 C   0  0  0  0  0  0  0  0  0  0  0  0
    0.0693    2.0836    1.3045 N   0  0  0  0  0  0  0  0  0  0  0  0
   -0.5174    2.7149    0.2522 C   0  0  0  0  0  0  0  0  0  0  0  0
   -0.6326    3.9355    0.2203 O   0  0  0  0  0  0  0  0  0  0  0  0
   -0.8995    1.9381   -0.7947 N   0  0  0  0  0  0  0  0  0  0  0  0
   -0.3309    0.7208   -1.0480 C   0  0  0  0  0  0  0  0  0  0  0  0
   -0.1820    0.3437   -2.2080 O   0  0  0  0  0  0  0  0  0  0  0  0
    0.0445   -0.0992    0.1779 C   0  0  0  0  0  0  0  0  0  0  0  0
   -1.2492   -0.7561    0.7428 C   0  0  0  0  0  0  0  0  0  0  0  0
   -1.9673   -1.6965   -0.1889 C   0  0  0  0  0  0  0  0  0  0  0  0
   -3.1875   -1.4656   -0.6898 C   0  0  0  0  0  0  0  0  0  0  0  0
    1.1095   -1.1678   -0.1638 C   0  0  0  0  0  0  0  0  0  0  0  0
    2.4120   -0.6122   -0.6901 C   0  0  0  0  0  0  0  0  0  0  0  0
    3.5544   -0.5882    0.0073 C   0  0  0  0  0  0  0  0  0  0  0  0
    0.4203    2.6829    2.0393 H   0  0  0  0  0  0  0  0  0  0  0  0
   -1.1501    2.4652   -1.6213 H   0  0  0  0  0  0  0  0  0  0  0  0
   -1.9494    0.0240    1.0744 H   0  0  0  0  0  0  0  0  0  0  0  0
   -1.0019   -1.3221    1.6518 H   0  0  0  0  0  0  0  0  0  0  0  0
   -1.4660   -2.6268   -0.4512 H   0  0  0  0  0  0  0  0  0  0  0  0
   -3.6580   -2.1862   -1.3532 H   0  0  0  0  0  0  0  0  0  0  0  0
   -3.7468   -0.5642   -0.4598 H   0  0  0  0  0  0  0  0  0  0  0  0
    1.3082   -1.7878    0.7211 H   0  0  0  0  0  0  0  0  0  0  0  0
    0.7314   -1.8556   -0.9306 H   0  0  0  0  0  0  0  0  0  0  0  0
    2.4141   -0.2421   -1.7151 H   0  0  0  0  0  0  0  0  0  0  0  0
    3.6072   -0.9541    1.0291 H   0  0  0  0  0  0  0  0  0  0  0  0
    4.4666   -0.1938   -0.4300 H   0  0  0  0  0  0  0  0  0  0  0  0
  1  2  2  0
  2  3  1  0
  3  4  1  0
  4  5  2  0
  4  6  1  0
  6  7  1  0
  7  8  2  0
  7  9  1  0
  9 10  1  0
 10 11  1  0
 11 12  2  3
  9 13  1  0
 13 14  1  0
 14 15  2  3
  9  2  1  0
  3 16  1  0
  6 17  1  0
 10 18  1  0
 10 19  1  0
 11 20  1  0
 12 21  1  0
 12 22  1  0
 13 23  1  0
 13 24  1  0
 14 25  1  0
 15 26  1  0
 15 27  1  0
M  END
>  <Energy>  (6) 
-112.78717957433467

>  <Real charge>  (6) 
0

>  <Mult>  (6) 
1

$$$$
mol_773 180
     RDKit          3D

 27 27  0  0  0  0  0  0  0  0999 V2000
    0.1158   -0.5224    1.9883 O   0  0  0  0  0  0  0  0  0  0  0  0
    0.3506    0.2664    1.0757 C   0  0  0  0  0  0  0  0  0  0  0  0
    1.1125    1.3764    1.3197 N   0  0  0  0  0  0  0  0  0  0  0  0
    0.9612    2.5458    0.6451 C   0  0  0  0  0  0  0  0  0  0  0  0
    1.2779    3.6204    1.1441 O   0  0  0  0  0  0  0  0  0  0  0  0
    0.3690    2.4787   -0.5772 N   0  0  0  0  0  0  0  0  0  0  0  0
   -0.3722    1.4206   -1.0288 C   0  0  0  0  0  0  0  0  0  0  0  0
   -1.1470    1.5752   -1.9708 O   0  0  0  0  0  0  0  0  0  0  0  0
   -0.1013    0.0782   -0.3663 C   0  0  0  0  0  0  0  0  0  0  0  0
    1.0846   -0.5327   -1.1698 C   0  0  0  0  0  0  0  0  0  0  0  0
    1.5537   -1.8907   -0.7185 C   0  0  0  0  0  0  0  0  0  0  0  0
    2.7620   -2.1278   -0.1927 C   0  0  0  0  0  0  0  0  0  0  0  0
   -1.3516   -0.8304   -0.4412 C   0  0  0  0  0  0  0  0  0  0  0  0
   -2.6083   -0.2285    0.1425 C   0  0  0  0  0  0  0  0  0  0  0  0
   -3.1417   -0.5947    1.3144 C   0  0  0  0  0  0  0  0  0  0  0  0
    1.4000    1.4871    2.2834 H   0  0  0  0  0  0  0  0  0  0  0  0
    0.1677    3.3707   -1.0092 H   0  0  0  0  0  0  0  0  0  0  0  0
    1.9372    0.1614   -1.1628 H   0  0  0  0  0  0  0  0  0  0  0  0
    0.7979   -0.6212   -2.2271 H   0  0  0  0  0  0  0  0  0  0  0  0
    0.8699   -2.7283   -0.8470 H   0  0  0  0  0  0  0  0  0  0  0  0
    3.4944   -1.3401   -0.0461 H   0  0  0  0  0  0  0  0  0  0  0  0
    3.0457   -3.1320    0.1099 H   0  0  0  0  0  0  0  0  0  0  0  0
   -1.1545   -1.7882    0.0578 H   0  0  0  0  0  0  0  0  0  0  0  0
   -1.5689   -1.0801   -1.4885 H   0  0  0  0  0  0  0  0  0  0  0  0
   -3.1207    0.5257   -0.4541 H   0  0  0  0  0  0  0  0  0  0  0  0
   -4.0591   -0.1409    1.6766 H   0  0  0  0  0  0  0  0  0  0  0  0
   -2.6748   -1.3487    1.9427 H   0  0  0  0  0  0  0  0  0  0  0  0
  1  2  2  0
  2  3  1  0
  3  4  1  0
  4  5  2  0
  4  6  1  0
  6  7  1  0
  7  8  2  0
  7  9  1  0
  9 10  1  0
 10 11  1  0
 11 12  2  3
  9 13  1  0
 13 14  1  0
 14 15  2  3
  9  2  1  0
  3 16  1  0
  6 17  1  0
 10 18  1  0
 10 19  1  0
 11 20  1  0
 12 21  1  0
 12 22  1  0
 13 23  1  0
 13 24  1  0
 14 25  1  0
 15 26  1  0
 15 27  1  0
M  END
>  <Energy>  (7) 
-112.64316351211968

>  <Real charge>  (7) 
0

>  <Mult>  (7) 
1

$$$$
mol_773 113
     RDKit          3D

 27 27  0  0  0  0  0  0  0  0999 V2000
   -2.5311    1.0567    0.0667 O   0  0  0  0  0  0  0  0  0  0  0  0
   -1.9149   -0.0040    0.0998 C   0  0  0  0  0  0  0  0  0  0  0  0
   -2.5477   -1.1426    0.5253 N   0  0  0  0  0  0  0  0  0  0  0  0
   -2.2968   -2.3577   -0.0329 C   0  0  0  0  0  0  0  0  0  0  0  0
   -3.1602   -3.2267   -0.0887 O   0  0  0  0  0  0  0  0  0  0  0  0
   -1.0813   -2.5258   -0.6204 N   0  0  0  0  0  0  0  0  0  0  0  0
   -0.3477   -1.4724   -1.0981 C   0  0  0  0  0  0  0  0  0  0  0  0
    0.3437   -1.6129   -2.1031 O   0  0  0  0  0  0  0  0  0  0  0  0
   -0.4470   -0.1818   -0.2867 C   0  0  0  0  0  0  0  0  0  0  0  0
    0.3624   -0.3629    1.0288 C   0  0  0  0  0  0  0  0  0  0  0  0
    1.8467   -0.5658    0.8550 C   0  0  0  0  0  0  0  0  0  0  0  0
    2.7782    0.2033    1.4325 C   0  0  0  0  0  0  0  0  0  0  0  0
    0.0532    1.0038   -1.1535 C   0  0  0  0  0  0  0  0  0  0  0  0
    0.1807    2.3398   -0.4616 C   0  0  0  0  0  0  0  0  0  0  0  0
    1.3283    3.0203   -0.3470 C   0  0  0  0  0  0  0  0  0  0  0  0
   -3.5206   -1.0100    0.7720 H   0  0  0  0  0  0  0  0  0  0  0  0
   -1.0130   -3.3702   -1.1744 H   0  0  0  0  0  0  0  0  0  0  0  0
   -0.0063   -1.2364    1.5837 H   0  0  0  0  0  0  0  0  0  0  0  0
    0.1743    0.4921    1.6925 H   0  0  0  0  0  0  0  0  0  0  0  0
    2.1762   -1.4000    0.2371 H   0  0  0  0  0  0  0  0  0  0  0  0
    2.5151    1.0463    2.0645 H   0  0  0  0  0  0  0  0  0  0  0  0
    3.8351    0.0066    1.2780 H   0  0  0  0  0  0  0  0  0  0  0  0
   -0.6347    1.1416   -1.9995 H   0  0  0  0  0  0  0  0  0  0  0  0
    1.0201    0.7484   -1.6082 H   0  0  0  0  0  0  0  0  0  0  0  0
   -0.7294    2.7878   -0.0655 H   0  0  0  0  0  0  0  0  0  0  0  0
    2.2639    2.6345   -0.7406 H   0  0  0  0  0  0  0  0  0  0  0  0
    1.3529    3.9881    0.1444 H   0  0  0  0  0  0  0  0  0  0  0  0
  1  2  2  0
  2  3  1  0
  3  4  1  0
  4  5  2  0
  4  6  1  0
  6  7  1  0
  7  8  2  0
  7  9  1  0
  9 10  1  0
 10 11  1  0
 11 12  2  3
  9 13  1  0
 13 14  1  0
 14 15  2  3
  9  2  1  0
  3 16  1  0
  6 17  1  0
 10 18  1  0
 10 19  1  0
 11 20  1  0
 12 21  1  0
 12 22  1  0
 13 23  1  0
 13 24  1  0
 14 25  1  0
 15 26  1  0
 15 27  1  0
M  END
>  <Energy>  (8) 
-112.49557248534519

>  <Real charge>  (8) 
0

>  <Mult>  (8) 
1

$$$$
