mol_977 3
     RDKit          3D

 29 30  0  0  0  0  0  0  0  0999 V2000
   -2.2610   -0.0045    1.6350 C   0  0  0  0  0  0  0  0  0  0  0  0
   -1.1722    0.1046    0.5727 C   0  0  0  0  0  0  0  0  0  0  0  0
   -0.9056    1.5763    0.2026 C   0  0  0  0  0  0  0  0  0  0  0  0
    0.1882    1.6501   -0.8690 C   0  0  0  0  0  0  0  0  0  0  0  0
    0.7351    0.2328   -1.1264 C   0  0  0  0  0  0  0  0  0  0  0  0
   -0.4319   -0.5702   -1.7326 C   0  0  0  0  0  0  0  0  0  0  0  0
   -1.5427   -0.7051   -0.6847 C   0  0  0  0  0  0  0  0  0  0  0  0
    1.1603   -0.4118    0.2257 C   0  0  0  0  0  0  0  0  0  0  0  0
    1.6505   -1.8571    0.0496 C   0  0  0  0  0  0  0  0  0  0  0  0
    2.2760    0.3830    0.9209 C   0  0  0  0  0  0  0  0  0  0  0  0
    0.0365   -0.4501    1.1309 O   0  0  0  0  0  0  0  0  0  0  0  0
   -3.2140    0.4000    1.2793 H   0  0  0  0  0  0  0  0  0  0  0  0
   -2.4147   -1.0490    1.9289 H   0  0  0  0  0  0  0  0  0  0  0  0
   -1.9726    0.5342    2.5447 H   0  0  0  0  0  0  0  0  0  0  0  0
   -0.5693    2.1310    1.0875 H   0  0  0  0  0  0  0  0  0  0  0  0
   -1.8178    2.0644   -0.1602 H   0  0  0  0  0  0  0  0  0  0  0  0
    0.9837    2.3353   -0.5567 H   0  0  0  0  0  0  0  0  0  0  0  0
   -0.2242    2.0735   -1.7933 H   0  0  0  0  0  0  0  0  0  0  0  0
    1.5726    0.2732   -1.8316 H   0  0  0  0  0  0  0  0  0  0  0  0
   -0.8210   -0.0633   -2.6244 H   0  0  0  0  0  0  0  0  0  0  0  0
   -0.1038   -1.5588   -2.0713 H   0  0  0  0  0  0  0  0  0  0  0  0
   -1.6575   -1.7656   -0.4282 H   0  0  0  0  0  0  0  0  0  0  0  0
   -2.4968   -0.3670   -1.1059 H   0  0  0  0  0  0  0  0  0  0  0  0
    2.4700   -1.9163   -0.6738 H   0  0  0  0  0  0  0  0  0  0  0  0
    0.8462   -2.5260   -0.2722 H   0  0  0  0  0  0  0  0  0  0  0  0
    2.0033   -2.2668    1.0036 H   0  0  0  0  0  0  0  0  0  0  0  0
    3.1463    0.5056    0.2682 H   0  0  0  0  0  0  0  0  0  0  0  0
    1.9347    1.3715    1.2438 H   0  0  0  0  0  0  0  0  0  0  0  0
    2.6017   -0.1241    1.8370 H   0  0  0  0  0  0  0  0  0  0  0  0
  1  2  1  0
  2  3  1  0
  3  4  1  0
  4  5  1  0
  5  6  1  0
  6  7  1  0
  5  8  1  0
  8  9  1  0
  8 10  1  0
  8 11  1  0
  7  2  1  0
 11  2  1  0
  1 12  1  0
  1 13  1  0
  1 14  1  0
  3 15  1  0
  3 16  1  0
  4 17  1  0
  4 18  1  0
  5 19  1  0
  6 20  1  0
  6 21  1  0
  7 22  1  0
  7 23  1  0
  9 24  1  0
  9 25  1  0
  9 26  1  0
 10 27  1  0
 10 28  1  0
 10 29  1  0
M  END
>  <Energy>  (1) 
38.3819351135283

>  <Real charge>  (1) 
0

>  <Mult>  (1) 
1

$$$$
