mol_899 287
     RDKit          3D

 32 32  0  0  0  0  0  0  0  0999 V2000
   -1.7363    0.8584   -2.4246 O   0  0  0  0  0  0  0  0  0  0  0  0
   -1.4565    0.3097   -1.3600 C   0  0  0  0  0  0  0  0  0  0  0  0
   -1.8479   -0.9801   -1.1357 N   0  0  0  0  0  0  0  0  0  0  0  0
   -1.8740   -1.5993    0.0737 C   0  0  0  0  0  0  0  0  0  0  0  0
   -2.4867   -2.6487    0.2417 O   0  0  0  0  0  0  0  0  0  0  0  0
   -1.2514   -0.9677    1.1022 N   0  0  0  0  0  0  0  0  0  0  0  0
   -0.8216    0.3289    1.0896 C   0  0  0  0  0  0  0  0  0  0  0  0
   -0.5748    0.9029    2.1493 O   0  0  0  0  0  0  0  0  0  0  0  0
   -0.6282    0.9711   -0.2731 C   0  0  0  0  0  0  0  0  0  0  0  0
   -0.9760    2.4831   -0.1944 C   0  0  0  0  0  0  0  0  0  0  0  0
   -2.4283    2.7776    0.1756 C   0  0  0  0  0  0  0  0  0  0  0  0
    0.8736    0.8457   -0.6585 C   0  0  0  0  0  0  0  0  0  0  0  0
    1.3957   -0.5580   -0.8541 C   0  0  0  0  0  0  0  0  0  0  0  0
    2.1246   -1.2943    0.0071 C   0  0  0  0  0  0  0  0  0  0  0  0
    2.5519   -0.8592    1.3830 C   0  0  0  0  0  0  0  0  0  0  0  0
    2.5833   -2.6806   -0.3679 C   0  0  0  0  0  0  0  0  0  0  0  0
   -2.4012   -1.4122   -1.8627 H   0  0  0  0  0  0  0  0  0  0  0  0
   -1.3717   -1.3882    2.0130 H   0  0  0  0  0  0  0  0  0  0  0  0
   -0.7668    2.9657   -1.1580 H   0  0  0  0  0  0  0  0  0  0  0  0
   -0.3302    2.9778    0.5427 H   0  0  0  0  0  0  0  0  0  0  0  0
   -2.6852    2.3733    1.1589 H   0  0  0  0  0  0  0  0  0  0  0  0
   -3.1246    2.3630   -0.5591 H   0  0  0  0  0  0  0  0  0  0  0  0
   -2.5895    3.8601    0.2103 H   0  0  0  0  0  0  0  0  0  0  0  0
    1.0479    1.3762   -1.6055 H   0  0  0  0  0  0  0  0  0  0  0  0
    1.4881    1.3774    0.0776 H   0  0  0  0  0  0  0  0  0  0  0  0
    1.1644   -0.9898   -1.8296 H   0  0  0  0  0  0  0  0  0  0  0  0
    3.6447   -0.8468    1.4504 H   0  0  0  0  0  0  0  0  0  0  0  0
    2.1951    0.1355    1.6569 H   0  0  0  0  0  0  0  0  0  0  0  0
    2.1679   -1.5588    2.1331 H   0  0  0  0  0  0  0  0  0  0  0  0
    2.2576   -2.9692   -1.3729 H   0  0  0  0  0  0  0  0  0  0  0  0
    3.6764   -2.7376   -0.3435 H   0  0  0  0  0  0  0  0  0  0  0  0
    2.1795   -3.4160    0.3356 H   0  0  0  0  0  0  0  0  0  0  0  0
  1  2  2  0
  2  3  1  0
  3  4  1  0
  4  5  2  0
  4  6  1  0
  6  7  1  0
  7  8  2  0
  7  9  1  0
  9 10  1  0
 10 11  1  0
  9 12  1  0
 12 13  1  0
 13 14  2  3
 14 15  1  0
 14 16  1  0
  9  2  1  0
  3 17  1  0
  6 18  1  0
 10 19  1  0
 10 20  1  0
 11 21  1  0
 11 22  1  0
 11 23  1  0
 12 24  1  0
 12 25  1  0
 13 26  1  0
 15 27  1  0
 15 28  1  0
 15 29  1  0
 16 30  1  0
 16 31  1  0
 16 32  1  0
M  END
>  <Energy>  (1) 
-120.70350030276776

>  <Real charge>  (1) 
0

>  <Mult>  (1) 
1

$$$$
mol_899 296
     RDKit          3D

 32 32  0  0  0  0  0  0  0  0999 V2000
   -0.5555   -1.1249   -1.7403 O   0  0  0  0  0  0  0  0  0  0  0  0
   -0.9074   -0.1992   -1.0137 C   0  0  0  0  0  0  0  0  0  0  0  0
   -1.2773    0.9977   -1.5627 N   0  0  0  0  0  0  0  0  0  0  0  0
   -2.2475    1.7819   -1.0239 C   0  0  0  0  0  0  0  0  0  0  0  0
   -2.9104    2.5475   -1.7158 O   0  0  0  0  0  0  0  0  0  0  0  0
   -2.5099    1.6155    0.3007 N   0  0  0  0  0  0  0  0  0  0  0  0
   -2.1396    0.5219    1.0362 C   0  0  0  0  0  0  0  0  0  0  0  0
   -2.7169    0.2665    2.0903 O   0  0  0  0  0  0  0  0  0  0  0  0
   -0.9489   -0.2659    0.5074 C   0  0  0  0  0  0  0  0  0  0  0  0
   -0.9917   -1.7320    1.0076 C   0  0  0  0  0  0  0  0  0  0  0  0
   -2.2418   -2.5112    0.6000 C   0  0  0  0  0  0  0  0  0  0  0  0
    0.3029    0.4744    1.0675 C   0  0  0  0  0  0  0  0  0  0  0  0
    1.6345   -0.1201    0.6847 C   0  0  0  0  0  0  0  0  0  0  0  0
    2.5413    0.3691   -0.1836 C   0  0  0  0  0  0  0  0  0  0  0  0
    2.3948    1.6299   -0.9898 C   0  0  0  0  0  0  0  0  0  0  0  0
    3.8350   -0.3662   -0.4290 C   0  0  0  0  0  0  0  0  0  0  0  0
   -1.2448    1.0235   -2.5736 H   0  0  0  0  0  0  0  0  0  0  0  0
   -3.3129    2.1234    0.6476 H   0  0  0  0  0  0  0  0  0  0  0  0
   -0.9211   -1.7521    2.1028 H   0  0  0  0  0  0  0  0  0  0  0  0
   -0.1240   -2.2864    0.6294 H   0  0  0  0  0  0  0  0  0  0  0  0
   -2.3502   -2.5670   -0.4866 H   0  0  0  0  0  0  0  0  0  0  0  0
   -3.1521   -2.0673    1.0120 H   0  0  0  0  0  0  0  0  0  0  0  0
   -2.1766   -3.5368    0.9785 H   0  0  0  0  0  0  0  0  0  0  0  0
    0.2696    1.5370    0.8009 H   0  0  0  0  0  0  0  0  0  0  0  0
    0.2561    0.4724    2.1662 H   0  0  0  0  0  0  0  0  0  0  0  0
    1.8747   -1.0501    1.2023 H   0  0  0  0  0  0  0  0  0  0  0  0
    2.4759    1.4034   -2.0583 H   0  0  0  0  0  0  0  0  0  0  0  0
    1.4391    2.1359   -0.8408 H   0  0  0  0  0  0  0  0  0  0  0  0
    3.1873    2.3383   -0.7266 H   0  0  0  0  0  0  0  0  0  0  0  0
    3.9152   -1.2802    0.1688 H   0  0  0  0  0  0  0  0  0  0  0  0
    3.9147   -0.6512   -1.4833 H   0  0  0  0  0  0  0  0  0  0  0  0
    4.6873    0.2725   -0.1749 H   0  0  0  0  0  0  0  0  0  0  0  0
  1  2  2  0
  2  3  1  0
  3  4  1  0
  4  5  2  0
  4  6  1  0
  6  7  1  0
  7  8  2  0
  7  9  1  0
  9 10  1  0
 10 11  1  0
  9 12  1  0
 12 13  1  0
 13 14  2  3
 14 15  1  0
 14 16  1  0
  9  2  1  0
  3 17  1  0
  6 18  1  0
 10 19  1  0
 10 20  1  0
 11 21  1  0
 11 22  1  0
 11 23  1  0
 12 24  1  0
 12 25  1  0
 13 26  1  0
 15 27  1  0
 15 28  1  0
 15 29  1  0
 16 30  1  0
 16 31  1  0
 16 32  1  0
M  END
>  <Energy>  (2) 
-120.16245325030425

>  <Real charge>  (2) 
0

>  <Mult>  (2) 
1

$$$$
mol_899 359
     RDKit          3D

 32 32  0  0  0  0  0  0  0  0999 V2000
   -2.0384   -0.7689   -2.1966 O   0  0  0  0  0  0  0  0  0  0  0  0
   -1.9268    0.1142   -1.3496 C   0  0  0  0  0  0  0  0  0  0  0  0
   -2.6472    1.2709   -1.4717 N   0  0  0  0  0  0  0  0  0  0  0  0
   -2.9590    2.0916   -0.4334 C   0  0  0  0  0  0  0  0  0  0  0  0
   -3.9206    2.8510   -0.4840 O   0  0  0  0  0  0  0  0  0  0  0  0
   -2.2096    1.9693    0.6938 N   0  0  0  0  0  0  0  0  0  0  0  0
   -1.5026    0.8408    1.0060 C   0  0  0  0  0  0  0  0  0  0  0  0
   -1.3074    0.5479    2.1830 O   0  0  0  0  0  0  0  0  0  0  0  0
   -0.9585    0.0502   -0.1759 C   0  0  0  0  0  0  0  0  0  0  0  0
   -0.6668   -1.4210    0.2131 C   0  0  0  0  0  0  0  0  0  0  0  0
   -1.8957   -2.2227    0.6407 C   0  0  0  0  0  0  0  0  0  0  0  0
    0.3349    0.7598   -0.6786 C   0  0  0  0  0  0  0  0  0  0  0  0
    1.4986    0.7444    0.2820 C   0  0  0  0  0  0  0  0  0  0  0  0
    2.6528    0.0579    0.1706 C   0  0  0  0  0  0  0  0  0  0  0  0
    3.0046   -0.8862   -0.9464 C   0  0  0  0  0  0  0  0  0  0  0  0
    3.7222    0.1850    1.2258 C   0  0  0  0  0  0  0  0  0  0  0  0
   -3.2998    1.2946   -2.2444 H   0  0  0  0  0  0  0  0  0  0  0  0
   -2.5725    2.4772    1.4902 H   0  0  0  0  0  0  0  0  0  0  0  0
    0.0511   -1.4599    1.0415 H   0  0  0  0  0  0  0  0  0  0  0  0
   -0.1975   -1.9418   -0.6314 H   0  0  0  0  0  0  0  0  0  0  0  0
   -1.5963   -3.2411    0.9101 H   0  0  0  0  0  0  0  0  0  0  0  0
   -2.3848   -1.7809    1.5133 H   0  0  0  0  0  0  0  0  0  0  0  0
   -2.6334   -2.2992   -0.1627 H   0  0  0  0  0  0  0  0  0  0  0  0
    0.1235    1.8168   -0.8948 H   0  0  0  0  0  0  0  0  0  0  0  0
    0.6261    0.3394   -1.6479 H   0  0  0  0  0  0  0  0  0  0  0  0
    1.3699    1.3851    1.1561 H   0  0  0  0  0  0  0  0  0  0  0  0
    3.8552   -0.4957   -1.5145 H   0  0  0  0  0  0  0  0  0  0  0  0
    3.2831   -1.8636   -0.5375 H   0  0  0  0  0  0  0  0  0  0  0  0
    2.1853   -1.0587   -1.6471 H   0  0  0  0  0  0  0  0  0  0  0  0
    4.6525    0.5510    0.7792 H   0  0  0  0  0  0  0  0  0  0  0  0
    3.9165   -0.7883    1.6881 H   0  0  0  0  0  0  0  0  0  0  0  0
    3.4406    0.8809    2.0231 H   0  0  0  0  0  0  0  0  0  0  0  0
  1  2  2  0
  2  3  1  0
  3  4  1  0
  4  5  2  0
  4  6  1  0
  6  7  1  0
  7  8  2  0
  7  9  1  0
  9 10  1  0
 10 11  1  0
  9 12  1  0
 12 13  1  0
 13 14  2  3
 14 15  1  0
 14 16  1  0
  9  2  1  0
  3 17  1  0
  6 18  1  0
 10 19  1  0
 10 20  1  0
 11 21  1  0
 11 22  1  0
 11 23  1  0
 12 24  1  0
 12 25  1  0
 13 26  1  0
 15 27  1  0
 15 28  1  0
 15 29  1  0
 16 30  1  0
 16 31  1  0
 16 32  1  0
M  END
>  <Energy>  (3) 
-120.01486196341125

>  <Real charge>  (3) 
0

>  <Mult>  (3) 
1

$$$$
