mol_217 76
     RDKit          3D

 17 17  0  0  0  0  0  0  0  0999 V2000
   -1.5565   -1.2225   -0.2389 C   0  0  0  0  0  0  0  0  0  0  0  0
   -0.2191   -0.5594   -0.0952 C   0  0  0  0  0  0  0  0  0  0  0  0
    0.9542   -1.3175   -0.1818 C   0  0  0  0  0  0  0  0  0  0  0  0
    2.1922   -0.7002   -0.0482 C   0  0  0  0  0  0  0  0  0  0  0  0
    2.2189    0.6639    0.1692 C   0  0  0  0  0  0  0  0  0  0  0  0
    1.1120    1.4304    0.2592 N   0  0  0  0  0  0  0  0  0  0  0  0
   -0.0918    0.8178    0.1273 C   0  0  0  0  0  0  0  0  0  0  0  0
   -1.2942    1.7110    0.2346 C   0  0  0  0  0  0  0  0  0  0  0  0
   -2.0988   -0.8061   -1.0937 H   0  0  0  0  0  0  0  0  0  0  0  0
   -2.1495   -1.0864    0.6710 H   0  0  0  0  0  0  0  0  0  0  0  0
   -1.4540   -2.2999   -0.4071 H   0  0  0  0  0  0  0  0  0  0  0  0
    0.9097   -2.3901   -0.3535 H   0  0  0  0  0  0  0  0  0  0  0  0
    3.1123   -1.2692   -0.1121 H   0  0  0  0  0  0  0  0  0  0  0  0
    3.1593    1.1954    0.2807 H   0  0  0  0  0  0  0  0  0  0  0  0
   -0.9926    2.7494    0.4082 H   0  0  0  0  0  0  0  0  0  0  0  0
   -1.8756    1.6819   -0.6920 H   0  0  0  0  0  0  0  0  0  0  0  0
   -1.9264    1.4017    1.0725 H   0  0  0  0  0  0  0  0  0  0  0  0
  1  2  1  0
  2  3  2  0
  3  4  1  0
  4  5  2  0
  5  6  1  0
  6  7  2  0
  7  8  1  0
  7  2  1  0
  1  9  1  0
  1 10  1  0
  1 11  1  0
  3 12  1  0
  4 13  1  0
  5 14  1  0
  8 15  1  0
  8 16  1  0
  8 17  1  0
M  END
>  <Energy>  (1) 
20.598394332650507

>  <Real charge>  (1) 
0

>  <Mult>  (1) 
1

$$$$
