mol_105 105
     RDKit          3D

 24 25  0  0  0  0  0  0  0  0999 V2000
   -2.8773   -0.8051   -0.3568 C   0  0  0  0  0  0  0  0  0  0  0  0
   -2.1440   -0.1536    0.8066 C   0  0  0  0  0  0  0  0  0  0  0  0
   -0.8733    0.5407    0.3621 C   0  0  0  0  0  0  0  0  0  0  0  0
   -0.9468    1.9190    0.0904 C   0  0  0  0  0  0  0  0  0  0  0  0
    0.1746    2.6243   -0.3308 C   0  0  0  0  0  0  0  0  0  0  0  0
    1.3879    1.9626   -0.4919 C   0  0  0  0  0  0  0  0  0  0  0  0
    1.4976    0.5878   -0.2388 C   0  0  0  0  0  0  0  0  0  0  0  0
    2.7320   -0.0601   -0.4136 C   0  0  0  0  0  0  0  0  0  0  0  0
    2.8673   -1.4259   -0.1732 C   0  0  0  0  0  0  0  0  0  0  0  0
    1.7677   -2.1621    0.2449 C   0  0  0  0  0  0  0  0  0  0  0  0
    0.5336   -1.5316    0.4241 C   0  0  0  0  0  0  0  0  0  0  0  0
    0.3622   -0.1470    0.1912 C   0  0  0  0  0  0  0  0  0  0  0  0
   -3.1527   -0.0640   -1.1150 H   0  0  0  0  0  0  0  0  0  0  0  0
   -2.2636   -1.5693   -0.8443 H   0  0  0  0  0  0  0  0  0  0  0  0
   -3.7956   -1.2844   -0.0031 H   0  0  0  0  0  0  0  0  0  0  0  0
   -2.8115    0.5737    1.2866 H   0  0  0  0  0  0  0  0  0  0  0  0
   -1.9247   -0.8919    1.5857 H   0  0  0  0  0  0  0  0  0  0  0  0
   -1.8886    2.4514    0.2072 H   0  0  0  0  0  0  0  0  0  0  0  0
    0.1041    3.6893   -0.5346 H   0  0  0  0  0  0  0  0  0  0  0  0
    2.2537    2.5324   -0.8222 H   0  0  0  0  0  0  0  0  0  0  0  0
    3.6046    0.5003   -0.7424 H   0  0  0  0  0  0  0  0  0  0  0  0
    3.8291   -1.9112   -0.3140 H   0  0  0  0  0  0  0  0  0  0  0  0
    1.8644   -3.2281    0.4327 H   0  0  0  0  0  0  0  0  0  0  0  0
   -0.3007   -2.1473    0.7492 H   0  0  0  0  0  0  0  0  0  0  0  0
  1  2  1  0
  2  3  1  0
  3  4  2  0
  4  5  1  0
  5  6  2  0
  6  7  1  0
  7  8  2  0
  8  9  1  0
  9 10  2  0
 10 11  1  0
 11 12  2  0
 12  3  1  0
 12  7  1  0
  1 13  1  0
  1 14  1  0
  1 15  1  0
  2 16  1  0
  2 17  1  0
  4 18  1  0
  5 19  1  0
  6 20  1  0
  8 21  1  0
  9 22  1  0
 10 23  1  0
 11 24  1  0
M  END
>  <Energy>  (1) 
36.024123215763865

>  <Real charge>  (1) 
0

>  <Mult>  (1) 
1

$$$$
