mol_20 600
     RDKit          3D

 36 35  0  0  0  0  0  0  0  0999 V2000
    6.4776    0.3685    0.3457 C   0  0  0  0  0  0  0  0  0  0  0  0
    5.2083   -0.4451    0.5424 C   0  0  0  0  0  0  0  0  0  0  0  0
    3.9591    0.3890    0.2601 C   0  0  0  0  0  0  0  0  0  0  0  0
    2.6846   -0.4330    0.4591 C   0  0  0  0  0  0  0  0  0  0  0  0
    1.4343    0.4017    0.1766 C   0  0  0  0  0  0  0  0  0  0  0  0
    0.1599   -0.4204    0.3757 C   0  0  0  0  0  0  0  0  0  0  0  0
   -1.0904    0.4143    0.0931 C   0  0  0  0  0  0  0  0  0  0  0  0
   -2.3653   -0.4079    0.2925 C   0  0  0  0  0  0  0  0  0  0  0  0
   -3.6170    0.4303    0.0103 C   0  0  0  0  0  0  0  0  0  0  0  0
   -4.9065   -0.3635    0.2387 C   0  0  0  0  0  0  0  0  0  0  0  0
   -6.1361    0.5092    0.0250 C   0  0  0  0  0  0  0  0  0  0  0  0
   -4.9524   -1.4545   -0.6766 O   0  0  0  0  0  0  0  0  0  0  0  0
    6.4995    1.2305    1.0200 H   0  0  0  0  0  0  0  0  0  0  0  0
    6.5533    0.7346   -0.6832 H   0  0  0  0  0  0  0  0  0  0  0  0
    7.3584   -0.2473    0.5528 H   0  0  0  0  0  0  0  0  0  0  0  0
    5.2329   -1.3161   -0.1228 H   0  0  0  0  0  0  0  0  0  0  0  0
    5.1794   -0.8230    1.5710 H   0  0  0  0  0  0  0  0  0  0  0  0
    3.9415    1.2611    0.9252 H   0  0  0  0  0  0  0  0  0  0  0  0
    3.9951    0.7680   -0.7686 H   0  0  0  0  0  0  0  0  0  0  0  0
    2.7022   -1.3049   -0.2061 H   0  0  0  0  0  0  0  0  0  0  0  0
    2.6487   -0.8117    1.4878 H   0  0  0  0  0  0  0  0  0  0  0  0
    1.4702    0.7805   -0.8521 H   0  0  0  0  0  0  0  0  0  0  0  0
    1.4167    1.2736    0.8418 H   0  0  0  0  0  0  0  0  0  0  0  0
    0.1239   -0.7991    1.4044 H   0  0  0  0  0  0  0  0  0  0  0  0
    0.1776   -1.2922   -0.2895 H   0  0  0  0  0  0  0  0  0  0  0  0
   -1.1077    1.2863    0.7582 H   0  0  0  0  0  0  0  0  0  0  0  0
   -1.0547    0.7928   -0.9357 H   0  0  0  0  0  0  0  0  0  0  0  0
   -2.4014   -0.7843    1.3220 H   0  0  0  0  0  0  0  0  0  0  0  0
   -2.3423   -1.2807   -0.3708 H   0  0  0  0  0  0  0  0  0  0  0  0
   -3.6132    1.3180    0.6543 H   0  0  0  0  0  0  0  0  0  0  0  0
   -3.5782    0.7765   -1.0304 H   0  0  0  0  0  0  0  0  0  0  0  0
   -4.9180   -0.7730    1.2551 H   0  0  0  0  0  0  0  0  0  0  0  0
   -7.0508   -0.0724    0.1825 H   0  0  0  0  0  0  0  0  0  0  0  0
   -6.1761    0.8852   -1.0033 H   0  0  0  0  0  0  0  0  0  0  0  0
   -6.1439    1.3609    0.7118 H   0  0  0  0  0  0  0  0  0  0  0  0
   -5.7690   -1.9520   -0.4996 H   0  0  0  0  0  0  0  0  0  0  0  0
  1  2  1  0
  2  3  1  0
  3  4  1  0
  4  5  1  0
  5  6  1  0
  6  7  1  0
  7  8  1  0
  8  9  1  0
  9 10  1  0
 10 11  1  0
 10 12  1  0
  1 13  1  0
  1 14  1  0
  1 15  1  0
  2 16  1  0
  2 17  1  0
  3 18  1  0
  3 19  1  0
  4 20  1  0
  4 21  1  0
  5 22  1  0
  5 23  1  0
  6 24  1  0
  6 25  1  0
  7 26  1  0
  7 27  1  0
  8 28  1  0
  8 29  1  0
  9 30  1  0
  9 31  1  0
 10 32  1  0
 11 33  1  0
 11 34  1  0
 11 35  1  0
 12 36  1  0
M  END
>  <Energy>  (1) 
-0.4101941770933773

>  <Real charge>  (1) 
0

>  <Mult>  (1) 
1

$$$$
mol_20 185
     RDKit          3D

 36 35  0  0  0  0  0  0  0  0999 V2000
    6.3922    0.3305   -0.1703 C   0  0  0  0  0  0  0  0  0  0  0  0
    5.1073   -0.2492    0.3994 C   0  0  0  0  0  0  0  0  0  0  0  0
    3.8739    0.3711   -0.2565 C   0  0  0  0  0  0  0  0  0  0  0  0
    2.5836   -0.2146    0.3193 C   0  0  0  0  0  0  0  0  0  0  0  0
    1.3493    0.4061   -0.3371 C   0  0  0  0  0  0  0  0  0  0  0  0
    0.0590   -0.1798    0.2388 C   0  0  0  0  0  0  0  0  0  0  0  0
   -1.1753    0.4409   -0.4177 C   0  0  0  0  0  0  0  0  0  0  0  0
   -2.4664   -0.1448    0.1589 C   0  0  0  0  0  0  0  0  0  0  0  0
   -3.6986    0.4747   -0.5016 C   0  0  0  0  0  0  0  0  0  0  0  0
   -5.0225    0.0064    0.1119 C   0  0  0  0  0  0  0  0  0  0  0  0
   -5.2829   -1.4815   -0.0745 C   0  0  0  0  0  0  0  0  0  0  0  0
   -6.0922    0.7102   -0.5198 O   0  0  0  0  0  0  0  0  0  0  0  0
    6.4638    0.1431   -1.2464 H   0  0  0  0  0  0  0  0  0  0  0  0
    6.4418    1.4116   -0.0054 H   0  0  0  0  0  0  0  0  0  0  0  0
    7.2612   -0.1270    0.3128 H   0  0  0  0  0  0  0  0  0  0  0  0
    5.1040   -1.3347    0.2469 H   0  0  0  0  0  0  0  0  0  0  0  0
    5.0821   -0.0733    1.4811 H   0  0  0  0  0  0  0  0  0  0  0  0
    3.8842    1.4574   -0.1047 H   0  0  0  0  0  0  0  0  0  0  0  0
    3.9061    0.1960   -1.3388 H   0  0  0  0  0  0  0  0  0  0  0  0
    2.5515   -0.0393    1.4015 H   0  0  0  0  0  0  0  0  0  0  0  0
    2.5734   -1.3008    0.1672 H   0  0  0  0  0  0  0  0  0  0  0  0
    1.3595    1.4922   -0.1850 H   0  0  0  0  0  0  0  0  0  0  0  0
    1.3814    0.2307   -1.4193 H   0  0  0  0  0  0  0  0  0  0  0  0
    0.0268   -0.0043    1.3210 H   0  0  0  0  0  0  0  0  0  0  0  0
    0.0490   -1.2659    0.0868 H   0  0  0  0  0  0  0  0  0  0  0  0
   -1.1438    0.2651   -1.4998 H   0  0  0  0  0  0  0  0  0  0  0  0
   -1.1644    1.5271   -0.2658 H   0  0  0  0  0  0  0  0  0  0  0  0
   -2.4650   -1.2301    0.0084 H   0  0  0  0  0  0  0  0  0  0  0  0
   -2.4998    0.0350    1.2401 H   0  0  0  0  0  0  0  0  0  0  0  0
   -3.6433    1.5684   -0.4235 H   0  0  0  0  0  0  0  0  0  0  0  0
   -3.6957    0.2593   -1.5781 H   0  0  0  0  0  0  0  0  0  0  0  0
   -5.0533    0.2494    1.1800 H   0  0  0  0  0  0  0  0  0  0  0  0
   -6.2849   -1.7406    0.2853 H   0  0  0  0  0  0  0  0  0  0  0  0
   -4.5576   -2.0935    0.4685 H   0  0  0  0  0  0  0  0  0  0  0  0
   -5.2510   -1.7549   -1.1349 H   0  0  0  0  0  0  0  0  0  0  0  0
   -5.9534    1.6594   -0.3605 H   0  0  0  0  0  0  0  0  0  0  0  0
  1  2  1  0
  2  3  1  0
  3  4  1  0
  4  5  1  0
  5  6  1  0
  6  7  1  0
  7  8  1  0
  8  9  1  0
  9 10  1  0
 10 11  1  0
 10 12  1  0
  1 13  1  0
  1 14  1  0
  1 15  1  0
  2 16  1  0
  2 17  1  0
  3 18  1  0
  3 19  1  0
  4 20  1  0
  4 21  1  0
  5 22  1  0
  5 23  1  0
  6 24  1  0
  6 25  1  0
  7 26  1  0
  7 27  1  0
  8 28  1  0
  8 29  1  0
  9 30  1  0
  9 31  1  0
 10 32  1  0
 11 33  1  0
 11 34  1  0
 11 35  1  0
 12 36  1  0
M  END
>  <Energy>  (2) 
0.0521665800396802

>  <Real charge>  (2) 
0

>  <Mult>  (2) 
1

$$$$
mol_20 256
     RDKit          3D

 36 35  0  0  0  0  0  0  0  0999 V2000
    6.3625    0.2627   -0.1613 C   0  0  0  0  0  0  0  0  0  0  0  0
    5.0540    0.1485    0.6044 C   0  0  0  0  0  0  0  0  0  0  0  0
    3.8511    0.1526   -0.3386 C   0  0  0  0  0  0  0  0  0  0  0  0
    2.5369    0.0375    0.4356 C   0  0  0  0  0  0  0  0  0  0  0  0
    1.3331    0.0416   -0.5080 C   0  0  0  0  0  0  0  0  0  0  0  0
    0.0190   -0.0734    0.2662 C   0  0  0  0  0  0  0  0  0  0  0  0
   -1.1849   -0.0693   -0.6775 C   0  0  0  0  0  0  0  0  0  0  0  0
   -2.5002   -0.1848    0.0973 C   0  0  0  0  0  0  0  0  0  0  0  0
   -3.7039   -0.1750   -0.8520 C   0  0  0  0  0  0  0  0  0  0  0  0
   -5.0580   -0.3588   -0.1553 C   0  0  0  0  0  0  0  0  0  0  0  0
   -5.3905    0.7552    0.8267 C   0  0  0  0  0  0  0  0  0  0  0  0
   -5.0885   -1.5974    0.5476 O   0  0  0  0  0  0  0  0  0  0  0  0
    7.2092    0.2579    0.5323 H   0  0  0  0  0  0  0  0  0  0  0  0
    6.4003    1.1930   -0.7370 H   0  0  0  0  0  0  0  0  0  0  0  0
    6.4861   -0.5758   -0.8541 H   0  0  0  0  0  0  0  0  0  0  0  0
    4.9766    0.9834    1.3105 H   0  0  0  0  0  0  0  0  0  0  0  0
    5.0620   -0.7756    1.1941 H   0  0  0  0  0  0  0  0  0  0  0  0
    3.9355   -0.6819   -1.0454 H   0  0  0  0  0  0  0  0  0  0  0  0
    3.8502    1.0770   -0.9289 H   0  0  0  0  0  0  0  0  0  0  0  0
    2.4526    0.8722    1.1422 H   0  0  0  0  0  0  0  0  0  0  0  0
    2.5380   -0.8870    1.0257 H   0  0  0  0  0  0  0  0  0  0  0  0
    1.3320    0.9661   -1.0982 H   0  0  0  0  0  0  0  0  0  0  0  0
    1.4174   -0.7930   -1.2146 H   0  0  0  0  0  0  0  0  0  0  0  0
    0.0200   -0.9980    0.8563 H   0  0  0  0  0  0  0  0  0  0  0  0
   -0.0653    0.7612    0.9728 H   0  0  0  0  0  0  0  0  0  0  0  0
   -1.1862    0.8554   -1.2673 H   0  0  0  0  0  0  0  0  0  0  0  0
   -1.1000   -0.9039   -1.3840 H   0  0  0  0  0  0  0  0  0  0  0  0
   -2.4952   -1.1097    0.6857 H   0  0  0  0  0  0  0  0  0  0  0  0
   -2.5736    0.6502    0.8030 H   0  0  0  0  0  0  0  0  0  0  0  0
   -3.5754   -0.9909   -1.5749 H   0  0  0  0  0  0  0  0  0  0  0  0
   -3.7137    0.7614   -1.4230 H   0  0  0  0  0  0  0  0  0  0  0  0
   -5.8441   -0.3959   -0.9184 H   0  0  0  0  0  0  0  0  0  0  0  0
   -5.3389    1.7377    0.3483 H   0  0  0  0  0  0  0  0  0  0  0  0
   -6.4026    0.6163    1.2230 H   0  0  0  0  0  0  0  0  0  0  0  0
   -4.7207    0.7434    1.6926 H   0  0  0  0  0  0  0  0  0  0  0  0
   -4.8947   -2.3029   -0.0929 H   0  0  0  0  0  0  0  0  0  0  0  0
  1  2  1  0
  2  3  1  0
  3  4  1  0
  4  5  1  0
  5  6  1  0
  6  7  1  0
  7  8  1  0
  8  9  1  0
  9 10  1  0
 10 11  1  0
 10 12  1  0
  1 13  1  0
  1 14  1  0
  1 15  1  0
  2 16  1  0
  2 17  1  0
  3 18  1  0
  3 19  1  0
  4 20  1  0
  4 21  1  0
  5 22  1  0
  5 23  1  0
  6 24  1  0
  6 25  1  0
  7 26  1  0
  7 27  1  0
  8 28  1  0
  8 29  1  0
  9 30  1  0
  9 31  1  0
 10 32  1  0
 11 33  1  0
 11 34  1  0
 11 35  1  0
 12 36  1  0
M  END
>  <Energy>  (3) 
0.27782035106910347

>  <Real charge>  (3) 
0

>  <Mult>  (3) 
1

$$$$
mol_20 463
     RDKit          3D

 36 35  0  0  0  0  0  0  0  0999 V2000
    6.1394   -1.1991    0.3298 C   0  0  0  0  0  0  0  0  0  0  0  0
    5.0414   -0.3878   -0.3394 C   0  0  0  0  0  0  0  0  0  0  0  0
    3.6810   -0.6454    0.3080 C   0  0  0  0  0  0  0  0  0  0  0  0
    2.5794    0.1725   -0.3680 C   0  0  0  0  0  0  0  0  0  0  0  0
    1.2179   -0.0851    0.2799 C   0  0  0  0  0  0  0  0  0  0  0  0
    0.1162    0.7327   -0.3963 C   0  0  0  0  0  0  0  0  0  0  0  0
   -1.2459    0.4752    0.2523 C   0  0  0  0  0  0  0  0  0  0  0  0
   -2.3466    1.2910   -0.4291 C   0  0  0  0  0  0  0  0  0  0  0  0
   -3.7118    1.1665    0.2595 C   0  0  0  0  0  0  0  0  0  0  0  0
   -4.3114   -0.2430    0.2308 C   0  0  0  0  0  0  0  0  0  0  0  0
   -5.6852   -0.2675    0.8894 C   0  0  0  0  0  0  0  0  0  0  0  0
   -4.4418   -0.6700   -1.1217 O   0  0  0  0  0  0  0  0  0  0  0  0
    5.9371   -2.2721    0.2522 H   0  0  0  0  0  0  0  0  0  0  0  0
    6.2268   -0.9414    1.3901 H   0  0  0  0  0  0  0  0  0  0  0  0
    7.1033   -0.9996   -0.1488 H   0  0  0  0  0  0  0  0  0  0  0  0
    5.2901    0.6777   -0.2725 H   0  0  0  0  0  0  0  0  0  0  0  0
    5.0020   -0.6457   -1.4042 H   0  0  0  0  0  0  0  0  0  0  0  0
    3.4390   -1.7131    0.2421 H   0  0  0  0  0  0  0  0  0  0  0  0
    3.7270   -0.3898    1.3737 H   0  0  0  0  0  0  0  0  0  0  0  0
    2.8215    1.2402   -0.3018 H   0  0  0  0  0  0  0  0  0  0  0  0
    2.5334   -0.0832   -1.4336 H   0  0  0  0  0  0  0  0  0  0  0  0
    1.2638    0.1707    1.3455 H   0  0  0  0  0  0  0  0  0  0  0  0
    0.9760   -1.1529    0.2138 H   0  0  0  0  0  0  0  0  0  0  0  0
    0.3590    1.8003   -0.3303 H   0  0  0  0  0  0  0  0  0  0  0  0
    0.0697    0.4766   -1.4618 H   0  0  0  0  0  0  0  0  0  0  0  0
   -1.2006    0.7351    1.3167 H   0  0  0  0  0  0  0  0  0  0  0  0
   -1.4758   -0.5940    0.1870 H   0  0  0  0  0  0  0  0  0  0  0  0
   -2.0609    2.3504   -0.4251 H   0  0  0  0  0  0  0  0  0  0  0  0
   -2.4294    0.9953   -1.4818 H   0  0  0  0  0  0  0  0  0  0  0  0
   -3.6280    1.5117    1.2972 H   0  0  0  0  0  0  0  0  0  0  0  0
   -4.3964    1.8550   -0.2529 H   0  0  0  0  0  0  0  0  0  0  0  0
   -3.6542   -0.9490    0.7486 H   0  0  0  0  0  0  0  0  0  0  0  0
   -5.6316    0.0550    1.9336 H   0  0  0  0  0  0  0  0  0  0  0  0
   -6.3883    0.3812    0.3553 H   0  0  0  0  0  0  0  0  0  0  0  0
   -6.1062   -1.2783    0.8591 H   0  0  0  0  0  0  0  0  0  0  0  0
   -4.8097   -1.5701   -1.1114 H   0  0  0  0  0  0  0  0  0  0  0  0
  1  2  1  0
  2  3  1  0
  3  4  1  0
  4  5  1  0
  5  6  1  0
  6  7  1  0
  7  8  1  0
  8  9  1  0
  9 10  1  0
 10 11  1  0
 10 12  1  0
  1 13  1  0
  1 14  1  0
  1 15  1  0
  2 16  1  0
  2 17  1  0
  3 18  1  0
  3 19  1  0
  4 20  1  0
  4 21  1  0
  5 22  1  0
  5 23  1  0
  6 24  1  0
  6 25  1  0
  7 26  1  0
  7 27  1  0
  8 28  1  0
  8 29  1  0
  9 30  1  0
  9 31  1  0
 10 32  1  0
 11 33  1  0
 11 34  1  0
 11 35  1  0
 12 36  1  0
M  END
>  <Energy>  (4) 
0.3594073110702366

>  <Real charge>  (4) 
0

>  <Mult>  (4) 
1

$$$$
mol_20 484
     RDKit          3D

 36 35  0  0  0  0  0  0  0  0999 V2000
    6.1371    0.8637   -0.4516 C   0  0  0  0  0  0  0  0  0  0  0  0
    4.6887    1.0543   -0.8727 C   0  0  0  0  0  0  0  0  0  0  0  0
    3.7602    0.0870   -0.1389 C   0  0  0  0  0  0  0  0  0  0  0  0
    2.3043    0.2820   -0.5653 C   0  0  0  0  0  0  0  0  0  0  0  0
    1.3750   -0.6859    0.1692 C   0  0  0  0  0  0  0  0  0  0  0  0
   -0.0817   -0.4911   -0.2579 C   0  0  0  0  0  0  0  0  0  0  0  0
   -1.0094   -1.4578    0.4815 C   0  0  0  0  0  0  0  0  0  0  0  0
   -2.4650   -1.3859    0.0096 C   0  0  0  0  0  0  0  0  0  0  0  0
   -3.1392   -0.0444    0.3208 C   0  0  0  0  0  0  0  0  0  0  0  0
   -4.6327   -0.0594   -0.0214 C   0  0  0  0  0  0  0  0  0  0  0  0
   -5.2974    1.2584    0.3539 C   0  0  0  0  0  0  0  0  0  0  0  0
   -4.7891   -0.2716   -1.4216 O   0  0  0  0  0  0  0  0  0  0  0  0
    6.7834    1.5652   -0.9885 H   0  0  0  0  0  0  0  0  0  0  0  0
    6.2604    1.0413    0.6215 H   0  0  0  0  0  0  0  0  0  0  0  0
    6.4799   -0.1520   -0.6737 H   0  0  0  0  0  0  0  0  0  0  0  0
    4.3876    2.0881   -0.6670 H   0  0  0  0  0  0  0  0  0  0  0  0
    4.6059    0.9013   -1.9550 H   0  0  0  0  0  0  0  0  0  0  0  0
    4.0683   -0.9454   -0.3446 H   0  0  0  0  0  0  0  0  0  0  0  0
    3.8500    0.2413    0.9434 H   0  0  0  0  0  0  0  0  0  0  0  0
    2.2146    0.1275   -1.6474 H   0  0  0  0  0  0  0  0  0  0  0  0
    1.9965    1.3144   -0.3594 H   0  0  0  0  0  0  0  0  0  0  0  0
    1.4640   -0.5311    1.2514 H   0  0  0  0  0  0  0  0  0  0  0  0
    1.6837   -1.7180   -0.0366 H   0  0  0  0  0  0  0  0  0  0  0  0
   -0.1714   -0.6497   -1.3393 H   0  0  0  0  0  0  0  0  0  0  0  0
   -0.3784    0.5439   -0.0545 H   0  0  0  0  0  0  0  0  0  0  0  0
   -0.6520   -2.4839    0.3293 H   0  0  0  0  0  0  0  0  0  0  0  0
   -0.9625   -1.2645    1.5601 H   0  0  0  0  0  0  0  0  0  0  0  0
   -2.5087   -1.5884   -1.0671 H   0  0  0  0  0  0  0  0  0  0  0  0
   -3.0235   -2.1895    0.5055 H   0  0  0  0  0  0  0  0  0  0  0  0
   -2.6477    0.7455   -0.2593 H   0  0  0  0  0  0  0  0  0  0  0  0
   -3.0086    0.1921    1.3835 H   0  0  0  0  0  0  0  0  0  0  0  0
   -5.1283   -0.8836    0.5038 H   0  0  0  0  0  0  0  0  0  0  0  0
   -4.8564    2.0926   -0.2028 H   0  0  0  0  0  0  0  0  0  0  0  0
   -6.3620    1.2373    0.0967 H   0  0  0  0  0  0  0  0  0  0  0  0
   -5.2031    1.4609    1.4250 H   0  0  0  0  0  0  0  0  0  0  0  0
   -5.7428   -0.2946   -1.6102 H   0  0  0  0  0  0  0  0  0  0  0  0
  1  2  1  0
  2  3  1  0
  3  4  1  0
  4  5  1  0
  5  6  1  0
  6  7  1  0
  7  8  1  0
  8  9  1  0
  9 10  1  0
 10 11  1  0
 10 12  1  0
  1 13  1  0
  1 14  1  0
  1 15  1  0
  2 16  1  0
  2 17  1  0
  3 18  1  0
  3 19  1  0
  4 20  1  0
  4 21  1  0
  5 22  1  0
  5 23  1  0
  6 24  1  0
  6 25  1  0
  7 26  1  0
  7 27  1  0
  8 28  1  0
  8 29  1  0
  9 30  1  0
  9 31  1  0
 10 32  1  0
 11 33  1  0
 11 34  1  0
 11 35  1  0
 12 36  1  0
M  END
>  <Energy>  (5) 
0.43148963905920695

>  <Real charge>  (5) 
0

>  <Mult>  (5) 
1

$$$$
mol_20 186
     RDKit          3D

 36 35  0  0  0  0  0  0  0  0999 V2000
    5.7074    0.3976    0.8587 C   0  0  0  0  0  0  0  0  0  0  0  0
    5.3139   -0.1666   -0.4977 C   0  0  0  0  0  0  0  0  0  0  0  0
    3.9537   -0.8674   -0.4969 C   0  0  0  0  0  0  0  0  0  0  0  0
    2.7832    0.0808   -0.2276 C   0  0  0  0  0  0  0  0  0  0  0  0
    1.4423   -0.6478   -0.3432 C   0  0  0  0  0  0  0  0  0  0  0  0
    0.2704    0.2969   -0.0712 C   0  0  0  0  0  0  0  0  0  0  0  0
   -1.0698   -0.4313   -0.1871 C   0  0  0  0  0  0  0  0  0  0  0  0
   -2.2420    0.5136    0.0848 C   0  0  0  0  0  0  0  0  0  0  0  0
   -3.5837   -0.2171   -0.0328 C   0  0  0  0  0  0  0  0  0  0  0  0
   -4.7730    0.7205    0.1996 C   0  0  0  0  0  0  0  0  0  0  0  0
   -6.0996   -0.0046    0.0176 C   0  0  0  0  0  0  0  0  0  0  0  0
   -4.7232    1.2579    1.5185 O   0  0  0  0  0  0  0  0  0  0  0  0
    5.0444    1.2131    1.1620 H   0  0  0  0  0  0  0  0  0  0  0  0
    6.7258    0.7974    0.8177 H   0  0  0  0  0  0  0  0  0  0  0  0
    5.6790   -0.3780    1.6305 H   0  0  0  0  0  0  0  0  0  0  0  0
    6.0769   -0.8907   -0.8077 H   0  0  0  0  0  0  0  0  0  0  0  0
    5.3193    0.6374   -1.2428 H   0  0  0  0  0  0  0  0  0  0  0  0
    3.8128   -1.3418   -1.4761 H   0  0  0  0  0  0  0  0  0  0  0  0
    3.9559   -1.6735    0.2469 H   0  0  0  0  0  0  0  0  0  0  0  0
    2.8717    0.5110    0.7763 H   0  0  0  0  0  0  0  0  0  0  0  0
    2.8116    0.9123   -0.9421 H   0  0  0  0  0  0  0  0  0  0  0  0
    1.3422   -1.0766   -1.3477 H   0  0  0  0  0  0  0  0  0  0  0  0
    1.4151   -1.4817    0.3689 H   0  0  0  0  0  0  0  0  0  0  0  0
    0.2981    1.1309   -0.7829 H   0  0  0  0  0  0  0  0  0  0  0  0
    0.3697    0.7257    0.9335 H   0  0  0  0  0  0  0  0  0  0  0  0
   -1.0976   -1.2652    0.5248 H   0  0  0  0  0  0  0  0  0  0  0  0
   -1.1689   -0.8601   -1.1917 H   0  0  0  0  0  0  0  0  0  0  0  0
   -2.1374    0.9433    1.0882 H   0  0  0  0  0  0  0  0  0  0  0  0
   -2.2149    1.3462   -0.6286 H   0  0  0  0  0  0  0  0  0  0  0  0
   -3.6052   -1.0293    0.7048 H   0  0  0  0  0  0  0  0  0  0  0  0
   -3.6653   -0.6729   -1.0270 H   0  0  0  0  0  0  0  0  0  0  0  0
   -4.7260    1.5626   -0.4994 H   0  0  0  0  0  0  0  0  0  0  0  0
   -6.1978   -0.8307    0.7305 H   0  0  0  0  0  0  0  0  0  0  0  0
   -6.9357    0.6767    0.2087 H   0  0  0  0  0  0  0  0  0  0  0  0
   -6.1988   -0.4034   -0.9965 H   0  0  0  0  0  0  0  0  0  0  0  0
   -4.7544    0.5148    2.1451 H   0  0  0  0  0  0  0  0  0  0  0  0
  1  2  1  0
  2  3  1  0
  3  4  1  0
  4  5  1  0
  5  6  1  0
  6  7  1  0
  7  8  1  0
  8  9  1  0
  9 10  1  0
 10 11  1  0
 10 12  1  0
  1 13  1  0
  1 14  1  0
  1 15  1  0
  2 16  1  0
  2 17  1  0
  3 18  1  0
  3 19  1  0
  4 20  1  0
  4 21  1  0
  5 22  1  0
  5 23  1  0
  6 24  1  0
  6 25  1  0
  7 26  1  0
  7 27  1  0
  8 28  1  0
  8 29  1  0
  9 30  1  0
  9 31  1  0
 10 32  1  0
 11 33  1  0
 11 34  1  0
 11 35  1  0
 12 36  1  0
M  END
>  <Energy>  (6) 
0.5104435295249279

>  <Real charge>  (6) 
0

>  <Mult>  (6) 
1

$$$$
mol_20 242
     RDKit          3D

 36 35  0  0  0  0  0  0  0  0999 V2000
    5.7814   -0.6871   -1.2082 C   0  0  0  0  0  0  0  0  0  0  0  0
    4.8927   -0.0502   -0.1518 C   0  0  0  0  0  0  0  0  0  0  0  0
    3.4284   -0.4465   -0.3387 C   0  0  0  0  0  0  0  0  0  0  0  0
    2.5378    0.1963    0.7259 C   0  0  0  0  0  0  0  0  0  0  0  0
    1.0716   -0.2009    0.5392 C   0  0  0  0  0  0  0  0  0  0  0  0
    0.1827    0.4470    1.6030 C   0  0  0  0  0  0  0  0  0  0  0  0
   -1.2784   -0.0069    1.5350 C   0  0  0  0  0  0  0  0  0  0  0  0
   -1.9961    0.4402    0.2591 C   0  0  0  0  0  0  0  0  0  0  0  0
   -3.4812    0.0608    0.2978 C   0  0  0  0  0  0  0  0  0  0  0  0
   -4.2284    0.5275   -0.9559 C   0  0  0  0  0  0  0  0  0  0  0  0
   -5.7135    0.2013   -0.8746 C   0  0  0  0  0  0  0  0  0  0  0  0
   -3.6853   -0.1016   -2.1134 O   0  0  0  0  0  0  0  0  0  0  0  0
    5.4824   -0.3734   -2.2135 H   0  0  0  0  0  0  0  0  0  0  0  0
    5.7284   -1.7794   -1.1588 H   0  0  0  0  0  0  0  0  0  0  0  0
    6.8238   -0.3903   -1.0557 H   0  0  0  0  0  0  0  0  0  0  0  0
    5.2381   -0.3582    0.8419 H   0  0  0  0  0  0  0  0  0  0  0  0
    4.9934    1.0400   -0.2069 H   0  0  0  0  0  0  0  0  0  0  0  0
    3.3337   -1.5380   -0.2868 H   0  0  0  0  0  0  0  0  0  0  0  0
    3.0892   -0.1399   -1.3357 H   0  0  0  0  0  0  0  0  0  0  0  0
    2.6318    1.2879    0.6736 H   0  0  0  0  0  0  0  0  0  0  0  0
    2.8778   -0.1104    1.7225 H   0  0  0  0  0  0  0  0  0  0  0  0
    0.7436    0.1034   -0.4610 H   0  0  0  0  0  0  0  0  0  0  0  0
    0.9771   -1.2920    0.5955 H   0  0  0  0  0  0  0  0  0  0  0  0
    0.2331    1.5390    1.5133 H   0  0  0  0  0  0  0  0  0  0  0  0
    0.5722    0.1939    2.5970 H   0  0  0  0  0  0  0  0  0  0  0  0
   -1.8042    0.4063    2.4048 H   0  0  0  0  0  0  0  0  0  0  0  0
   -1.3290   -1.0988    1.6254 H   0  0  0  0  0  0  0  0  0  0  0  0
   -1.8993    1.5265    0.1447 H   0  0  0  0  0  0  0  0  0  0  0  0
   -1.5252   -0.0232   -0.6145 H   0  0  0  0  0  0  0  0  0  0  0  0
   -3.5606   -1.0299    0.3898 H   0  0  0  0  0  0  0  0  0  0  0  0
   -3.9480    0.5014    1.1871 H   0  0  0  0  0  0  0  0  0  0  0  0
   -4.1053    1.6087   -1.0823 H   0  0  0  0  0  0  0  0  0  0  0  0
   -6.2251    0.5233   -1.7880 H   0  0  0  0  0  0  0  0  0  0  0  0
   -6.1829    0.6955   -0.0187 H   0  0  0  0  0  0  0  0  0  0  0  0
   -5.8752   -0.8789   -0.7878 H   0  0  0  0  0  0  0  0  0  0  0  0
   -3.7814   -1.0631   -2.0036 H   0  0  0  0  0  0  0  0  0  0  0  0
  1  2  1  0
  2  3  1  0
  3  4  1  0
  4  5  1  0
  5  6  1  0
  6  7  1  0
  7  8  1  0
  8  9  1  0
  9 10  1  0
 10 11  1  0
 10 12  1  0
  1 13  1  0
  1 14  1  0
  1 15  1  0
  2 16  1  0
  2 17  1  0
  3 18  1  0
  3 19  1  0
  4 20  1  0
  4 21  1  0
  5 22  1  0
  5 23  1  0
  6 24  1  0
  6 25  1  0
  7 26  1  0
  7 27  1  0
  8 28  1  0
  8 29  1  0
  9 30  1  0
  9 31  1  0
 10 32  1  0
 11 33  1  0
 11 34  1  0
 11 35  1  0
 12 36  1  0
M  END
>  <Energy>  (7) 
0.5492795646217442

>  <Real charge>  (7) 
0

>  <Mult>  (7) 
1

$$$$
mol_20 634
     RDKit          3D

 36 35  0  0  0  0  0  0  0  0999 V2000
    5.9568    0.3422    0.9333 C   0  0  0  0  0  0  0  0  0  0  0  0
    4.5456    0.5976    0.4261 C   0  0  0  0  0  0  0  0  0  0  0  0
    4.0822   -0.5147   -0.5153 C   0  0  0  0  0  0  0  0  0  0  0  0
    2.7114   -0.2487   -1.1439 C   0  0  0  0  0  0  0  0  0  0  0  0
    1.5668   -0.2444   -0.1281 C   0  0  0  0  0  0  0  0  0  0  0  0
    0.2115   -0.0890   -0.8219 C   0  0  0  0  0  0  0  0  0  0  0  0
   -0.9345   -0.0806    0.1912 C   0  0  0  0  0  0  0  0  0  0  0  0
   -2.2895    0.0745   -0.5024 C   0  0  0  0  0  0  0  0  0  0  0  0
   -3.4362    0.0840    0.5140 C   0  0  0  0  0  0  0  0  0  0  0  0
   -4.8000    0.2756   -0.1575 C   0  0  0  0  0  0  0  0  0  0  0  0
   -5.9227    0.3462    0.8687 C   0  0  0  0  0  0  0  0  0  0  0  0
   -5.0634   -0.8042   -1.0494 O   0  0  0  0  0  0  0  0  0  0  0  0
    6.0107   -0.6027    1.4834 H   0  0  0  0  0  0  0  0  0  0  0  0
    6.2684    1.1462    1.6074 H   0  0  0  0  0  0  0  0  0  0  0  0
    6.6704    0.2990    0.1042 H   0  0  0  0  0  0  0  0  0  0  0  0
    3.8733    0.6731    1.2872 H   0  0  0  0  0  0  0  0  0  0  0  0
    4.5201    1.5618   -0.0945 H   0  0  0  0  0  0  0  0  0  0  0  0
    4.8135   -0.6251   -1.3258 H   0  0  0  0  0  0  0  0  0  0  0  0
    4.0612   -1.4706    0.0221 H   0  0  0  0  0  0  0  0  0  0  0  0
    2.5224   -1.0283   -1.8924 H   0  0  0  0  0  0  0  0  0  0  0  0
    2.7328    0.7067   -1.6823 H   0  0  0  0  0  0  0  0  0  0  0  0
    1.5803   -1.1790    0.4453 H   0  0  0  0  0  0  0  0  0  0  0  0
    1.6998    0.5771    0.5845 H   0  0  0  0  0  0  0  0  0  0  0  0
    0.1991    0.8439   -1.3986 H   0  0  0  0  0  0  0  0  0  0  0  0
    0.0661   -0.9112   -1.5332 H   0  0  0  0  0  0  0  0  0  0  0  0
   -0.9218   -1.0134    0.7680 H   0  0  0  0  0  0  0  0  0  0  0  0
   -0.7897    0.7417    0.9025 H   0  0  0  0  0  0  0  0  0  0  0  0
   -2.4290   -0.7469   -1.2153 H   0  0  0  0  0  0  0  0  0  0  0  0
   -2.3023    1.0083   -1.0774 H   0  0  0  0  0  0  0  0  0  0  0  0
   -3.2710    0.8861    1.2434 H   0  0  0  0  0  0  0  0  0  0  0  0
   -3.4256   -0.8669    1.0618 H   0  0  0  0  0  0  0  0  0  0  0  0
   -4.7976    1.1969   -0.7501 H   0  0  0  0  0  0  0  0  0  0  0  0
   -6.8900    0.4617    0.3680 H   0  0  0  0  0  0  0  0  0  0  0  0
   -5.9800   -0.5783    1.4539 H   0  0  0  0  0  0  0  0  0  0  0  0
   -5.7820    1.1869    1.5547 H   0  0  0  0  0  0  0  0  0  0  0  0
   -5.0571   -1.6274   -0.5317 H   0  0  0  0  0  0  0  0  0  0  0  0
  1  2  1  0
  2  3  1  0
  3  4  1  0
  4  5  1  0
  5  6  1  0
  6  7  1  0
  7  8  1  0
  8  9  1  0
  9 10  1  0
 10 11  1  0
 10 12  1  0
  1 13  1  0
  1 14  1  0
  1 15  1  0
  2 16  1  0
  2 17  1  0
  3 18  1  0
  3 19  1  0
  4 20  1  0
  4 21  1  0
  5 22  1  0
  5 23  1  0
  6 24  1  0
  6 25  1  0
  7 26  1  0
  7 27  1  0
  8 28  1  0
  8 29  1  0
  9 30  1  0
  9 31  1  0
 10 32  1  0
 11 33  1  0
 11 34  1  0
 11 35  1  0
 12 36  1  0
M  END
>  <Energy>  (8) 
0.5604734237151996

>  <Real charge>  (8) 
0

>  <Mult>  (8) 
1

$$$$
