mol_503 36
     RDKit          3D

 22 23  0  0  0  0  0  0  0  0999 V2000
    3.9844   -0.4112    0.0102 C   0  0  0  0  0  0  0  0  0  0  0  0
    2.6299   -0.0666   -0.3331 N   0  0  0  0  0  0  0  0  0  0  0  0
    2.2616    0.7630   -1.3362 C   0  0  0  0  0  0  0  0  0  0  0  0
    2.9954    1.3349   -2.1269 O   0  0  0  0  0  0  0  0  0  0  0  0
    0.8946    0.8869   -1.3409 O   0  0  0  0  0  0  0  0  0  0  0  0
    0.4177    0.1021   -0.2570 N   0  0  0  0  0  0  0  0  0  0  0  0
   -0.9543    0.0610    0.0175 C   0  0  0  0  0  0  0  0  0  0  0  0
   -1.4598   -0.6829    1.0896 C   0  0  0  0  0  0  0  0  0  0  0  0
   -2.8343   -0.7159    1.3521 C   0  0  0  0  0  0  0  0  0  0  0  0
   -3.7232   -0.0050    0.5446 C   0  0  0  0  0  0  0  0  0  0  0  0
   -5.4048   -0.0905    0.9259 Cl  0  0  0  0  0  0  0  0  0  0  0  0
   -3.2311    0.7408   -0.5295 C   0  0  0  0  0  0  0  0  0  0  0  0
   -4.2655    1.6474   -1.5762 Cl  0  0  0  0  0  0  0  0  0  0  0  0
   -1.8547    0.7717   -0.7893 C   0  0  0  0  0  0  0  0  0  0  0  0
    1.5233   -0.4670    0.3613 C   0  0  0  0  0  0  0  0  0  0  0  0
    1.5399   -1.1896    1.3482 O   0  0  0  0  0  0  0  0  0  0  0  0
    4.0331   -1.4637    0.3034 H   0  0  0  0  0  0  0  0  0  0  0  0
    4.2904    0.2027    0.8625 H   0  0  0  0  0  0  0  0  0  0  0  0
    4.6563   -0.2229   -0.8311 H   0  0  0  0  0  0  0  0  0  0  0  0
   -0.8031   -1.2523    1.7440 H   0  0  0  0  0  0  0  0  0  0  0  0
   -3.2018   -1.3017    2.1921 H   0  0  0  0  0  0  0  0  0  0  0  0
   -1.4939    1.3587   -1.6313 H   0  0  0  0  0  0  0  0  0  0  0  0
  1  2  1  0
  2  3  1  0
  3  4  2  0
  3  5  1  0
  5  6  1  0
  6  7  1  0
  7  8  2  0
  8  9  1  0
  9 10  2  0
 10 11  1  0
 10 12  1  0
 12 13  1  0
 12 14  2  0
  6 15  1  0
 15 16  2  0
 14  7  1  0
 15  2  1  0
  1 17  1  0
  1 18  1  0
  1 19  1  0
  8 20  1  0
  9 21  1  0
 14 22  1  0
M  END
>  <Energy>  (1) 
-28.167374904225085

>  <Real charge>  (1) 
0

>  <Mult>  (1) 
1

$$$$
mol_503 111
     RDKit          3D

 22 23  0  0  0  0  0  0  0  0999 V2000
    3.9507    0.2949    0.3770 C   0  0  0  0  0  0  0  0  0  0  0  0
    2.6434   -0.1387   -0.0407 N   0  0  0  0  0  0  0  0  0  0  0  0
    2.3715   -1.2831   -0.7085 C   0  0  0  0  0  0  0  0  0  0  0  0
    3.1715   -2.1233   -1.0893 O   0  0  0  0  0  0  0  0  0  0  0  0
    1.0163   -1.3815   -0.9028 O   0  0  0  0  0  0  0  0  0  0  0  0
    0.4398   -0.2360   -0.2913 N   0  0  0  0  0  0  0  0  0  0  0  0
   -0.9508   -0.0750   -0.2953 C   0  0  0  0  0  0  0  0  0  0  0  0
   -1.7649   -1.0299   -0.9209 C   0  0  0  0  0  0  0  0  0  0  0  0
   -3.1562   -0.8865   -0.9363 C   0  0  0  0  0  0  0  0  0  0  0  0
   -3.7548    0.2162   -0.3258 C   0  0  0  0  0  0  0  0  0  0  0  0
   -5.4766    0.3319   -0.3816 Cl  0  0  0  0  0  0  0  0  0  0  0  0
   -2.9544    1.1757    0.3005 C   0  0  0  0  0  0  0  0  0  0  0  0
   -3.6224    2.5684    1.0771 Cl  0  0  0  0  0  0  0  0  0  0  0  0
   -1.5603    1.0285    0.3140 C   0  0  0  0  0  0  0  0  0  0  0  0
    1.4773    0.5114    0.2500 C   0  0  0  0  0  0  0  0  0  0  0  0
    1.3969    1.5562    0.8806 O   0  0  0  0  0  0  0  0  0  0  0  0
    4.0393    1.3765    0.2415 H   0  0  0  0  0  0  0  0  0  0  0  0
    4.7293   -0.2209   -0.1908 H   0  0  0  0  0  0  0  0  0  0  0  0
    4.0659    0.0665    1.4407 H   0  0  0  0  0  0  0  0  0  0  0  0
   -1.3311   -1.9018   -1.4071 H   0  0  0  0  0  0  0  0  0  0  0  0
   -3.7658   -1.6414   -1.4281 H   0  0  0  0  0  0  0  0  0  0  0  0
   -0.9644    1.7920    0.8086 H   0  0  0  0  0  0  0  0  0  0  0  0
  1  2  1  0
  2  3  1  0
  3  4  2  0
  3  5  1  0
  5  6  1  0
  6  7  1  0
  7  8  2  0
  8  9  1  0
  9 10  2  0
 10 11  1  0
 10 12  1  0
 12 13  1  0
 12 14  2  0
  6 15  1  0
 15 16  2  0
 14  7  1  0
 15  2  1  0
  1 17  1  0
  1 18  1  0
  1 19  1  0
  8 20  1  0
  9 21  1  0
 14 22  1  0
M  END
>  <Energy>  (2) 
-27.970357815104933

>  <Real charge>  (2) 
0

>  <Mult>  (2) 
1

$$$$
