mol_349 200
     RDKit          3D

 24 24  0  0  0  0  0  0  0  0999 V2000
   -2.8782   -0.9970   -0.2980 C   0  0  0  0  0  0  0  0  0  0  0  0
   -2.3728    0.3131   -0.6881 N   0  0  0  0  0  0  0  0  0  0  0  0
   -3.3777    1.3590   -0.7864 C   0  0  0  0  0  0  0  0  0  0  0  0
   -1.0565    0.7303   -0.4549 C   0  0  0  0  0  0  0  0  0  0  0  0
   -0.7803    1.9138   -0.2767 O   0  0  0  0  0  0  0  0  0  0  0  0
   -0.1370   -0.2947   -0.4839 N   0  0  0  0  0  0  0  0  0  0  0  0
    1.2268   -0.2323   -0.1329 C   0  0  0  0  0  0  0  0  0  0  0  0
    2.0332   -1.3227   -0.4848 C   0  0  0  0  0  0  0  0  0  0  0  0
    3.3913   -1.3400   -0.1560 C   0  0  0  0  0  0  0  0  0  0  0  0
    3.9540   -0.2695    0.5338 C   0  0  0  0  0  0  0  0  0  0  0  0
    3.1576    0.8141    0.8969 C   0  0  0  0  0  0  0  0  0  0  0  0
    1.7984    0.8312    0.5681 C   0  0  0  0  0  0  0  0  0  0  0  0
   -3.3364   -0.9094    0.6923 H   0  0  0  0  0  0  0  0  0  0  0  0
   -3.6335   -1.3149   -1.0226 H   0  0  0  0  0  0  0  0  0  0  0  0
   -2.1008   -1.7601   -0.2417 H   0  0  0  0  0  0  0  0  0  0  0  0
   -3.7127    1.6258    0.2206 H   0  0  0  0  0  0  0  0  0  0  0  0
   -4.2244    0.9954   -1.3757 H   0  0  0  0  0  0  0  0  0  0  0  0
   -2.9698    2.2491   -1.2748 H   0  0  0  0  0  0  0  0  0  0  0  0
   -0.4150   -1.0919   -1.0332 H   0  0  0  0  0  0  0  0  0  0  0  0
    1.6180   -2.1709   -1.0220 H   0  0  0  0  0  0  0  0  0  0  0  0
    4.0086   -2.1886   -0.4387 H   0  0  0  0  0  0  0  0  0  0  0  0
    5.0099   -0.2787    0.7904 H   0  0  0  0  0  0  0  0  0  0  0  0
    3.5899    1.6512    1.4391 H   0  0  0  0  0  0  0  0  0  0  0  0
    1.2076    1.6876    0.8791 H   0  0  0  0  0  0  0  0  0  0  0  0
  1  2  1  0
  2  3  1  0
  2  4  1  0
  4  5  2  0
  4  6  1  0
  6  7  1  0
  7  8  2  0
  8  9  1  0
  9 10  2  0
 10 11  1  0
 11 12  2  0
 12  7  1  0
  1 13  1  0
  1 14  1  0
  1 15  1  0
  3 16  1  0
  3 17  1  0
  3 18  1  0
  6 19  1  0
  8 20  1  0
  9 21  1  0
 10 22  1  0
 11 23  1  0
 12 24  1  0
M  END
>  <Energy>  (1) 
-44.58665953900817

>  <Real charge>  (1) 
0

>  <Mult>  (1) 
1

$$$$
