mol_910 183
     RDKit          3D

 10  9  0  0  0  0  0  0  0  0999 V2000
   -0.2926   -1.0006   -0.5398 N   0  0  0  0  0  0  0  0  0  0  0  0
   -0.1637    0.1171    0.2189 C   0  0  0  0  0  0  0  0  0  0  0  0
   -1.2269    0.2123    1.0547 N   0  0  0  0  0  0  0  0  0  0  0  0
    0.7578    1.0158    0.2277 N   0  0  0  0  0  0  0  0  0  0  0  0
    1.7790    0.8746   -0.6222 C   0  0  0  0  0  0  0  0  0  0  0  0
    2.6550    0.7145   -1.3644 N   0  0  0  0  0  0  0  0  0  0  0  0
    0.5380   -1.2826   -1.0530 H   0  0  0  0  0  0  0  0  0  0  0  0
   -0.6799   -1.7854   -0.0263 H   0  0  0  0  0  0  0  0  0  0  0  0
   -1.2586    1.1197    1.5111 H   0  0  0  0  0  0  0  0  0  0  0  0
   -2.1080    0.0147    0.5934 H   0  0  0  0  0  0  0  0  0  0  0  0
  1  2  1  0
  2  3  1  0
  2  4  2  3
  4  5  1  0
  5  6  3  0
  1  7  1  0
  1  8  1  0
  3  9  1  0
  3 10  1  0
M  END
>  <Energy>  (1) 
-122.80175695923863

>  <Real charge>  (1) 
0

>  <Mult>  (1) 
1

$$$$
