mol_894 270
     RDKit          3D

 40 41  0  0  0  0  0  0  0  0999 V2000
   -0.8578    2.1664   -2.8256 C   0  0  0  0  0  0  0  0  0  0  0  0
    0.0278    2.2228   -1.5893 C   0  0  0  0  0  0  0  0  0  0  0  0
   -0.2674    1.0914   -0.6869 N   0  0  0  0  0  0  0  0  0  0  0  0
   -1.4611    1.2494    0.1791 C   0  0  0  0  0  0  0  0  0  0  0  0
   -2.2169   -0.0477    0.3175 C   0  0  0  0  0  0  0  0  0  0  0  0
   -3.1213   -0.4106   -0.6893 C   0  0  0  0  0  0  0  0  0  0  0  0
   -3.3251    0.4095   -1.7302 F   0  0  0  0  0  0  0  0  0  0  0  0
   -3.8421   -1.6017   -0.6427 C   0  0  0  0  0  0  0  0  0  0  0  0
   -3.6715   -2.4684    0.4304 C   0  0  0  0  0  0  0  0  0  0  0  0
   -2.7818   -2.1319    1.4494 C   0  0  0  0  0  0  0  0  0  0  0  0
   -2.0593   -0.9322    1.3946 C   0  0  0  0  0  0  0  0  0  0  0  0
   -0.9807   -0.6065    2.7051 Cl  0  0  0  0  0  0  0  0  0  0  0  0
    0.8639    0.5067   -0.0920 C   0  0  0  0  0  0  0  0  0  0  0  0
    1.2497   -0.8028   -0.4481 C   0  0  0  0  0  0  0  0  0  0  0  0
    2.3266   -1.4902    0.1468 C   0  0  0  0  0  0  0  0  0  0  0  0
    3.0906   -0.8704    1.1420 C   0  0  0  0  0  0  0  0  0  0  0  0
    2.7725    0.4466    1.4960 C   0  0  0  0  0  0  0  0  0  0  0  0
    1.6858    1.1063    0.8838 C   0  0  0  0  0  0  0  0  0  0  0  0
    1.4710    2.4745    1.3041 N   0  0  0  0  0  4  0  0  0  0  0  0
    1.9640    3.3616    0.5959 O   0  0  0  0  0  1  0  0  0  0  0  0
    0.8541    2.6486    2.3621 O   0  0  0  0  0  0  0  0  0  0  0  0
    4.2597   -1.5857    1.7786 C   0  0  0  0  0  0  0  0  0  0  0  0
    4.0728   -2.9297    1.8653 F   0  0  0  0  0  0  0  0  0  0  0  0
    5.4090   -1.4056    1.0758 F   0  0  0  0  0  0  0  0  0  0  0  0
    4.5163   -1.1567    3.0434 F   0  0  0  0  0  0  0  0  0  0  0  0
    0.5402   -1.5095   -1.4992 N   0  0  0  0  0  4  0  0  0  0  0  0
   -0.1341   -2.4900   -1.1544 O   0  0  0  0  0  1  0  0  0  0  0  0
    0.7378   -1.1369   -2.6635 O   0  0  0  0  0  0  0  0  0  0  0  0
   -0.5726    2.9543   -3.5299 H   0  0  0  0  0  0  0  0  0  0  0  0
   -1.9112    2.3144   -2.5712 H   0  0  0  0  0  0  0  0  0  0  0  0
   -0.7666    1.2022   -3.3353 H   0  0  0  0  0  0  0  0  0  0  0  0
   -0.1244    3.1780   -1.0738 H   0  0  0  0  0  0  0  0  0  0  0  0
    1.0718    2.1902   -1.9270 H   0  0  0  0  0  0  0  0  0  0  0  0
   -1.2077    1.6695    1.1562 H   0  0  0  0  0  0  0  0  0  0  0  0
   -2.1434    1.9912   -0.2567 H   0  0  0  0  0  0  0  0  0  0  0  0
   -4.5275   -1.8445   -1.4492 H   0  0  0  0  0  0  0  0  0  0  0  0
   -4.2235   -3.4038    0.4717 H   0  0  0  0  0  0  0  0  0  0  0  0
   -2.6494   -2.8154    2.2854 H   0  0  0  0  0  0  0  0  0  0  0  0
    2.5648   -2.5069   -0.1701 H   0  0  0  0  0  0  0  0  0  0  0  0
    3.3672    0.9637    2.2513 H   0  0  0  0  0  0  0  0  0  0  0  0
  1  2  1  0
  2  3  1  0
  3  4  1  0
  4  5  1  0
  5  6  2  0
  6  7  1  0
  6  8  1  0
  8  9  2  0
  9 10  1  0
 10 11  2  0
 11 12  1  0
  3 13  1  0
 13 14  2  0
 14 15  1  0
 15 16  2  0
 16 17  1  0
 17 18  2  0
 18 19  1  0
 19 20  1  0
 19 21  2  0
 16 22  1  0
 22 23  1  0
 22 24  1  0
 22 25  1  0
 14 26  1  0
 26 27  1  0
 26 28  2  0
 11  5  1  0
 18 13  1  0
  1 29  1  0
  1 30  1  0
  1 31  1  0
  2 32  1  0
  2 33  1  0
  4 34  1  0
  4 35  1  0
  8 36  1  0
  9 37  1  0
 10 38  1  0
 15 39  1  0
 17 40  1  0
M  CHG  4  19   1  20  -1  26   1  27  -1
M  END
>  <Energy>  (1) 
142.147128863777

>  <Real charge>  (1) 
0

>  <Mult>  (1) 
1

$$$$
mol_894 200
     RDKit          3D

 40 41  0  0  0  0  0  0  0  0999 V2000
    0.9918   -3.5033    0.4331 C   0  0  0  0  0  0  0  0  0  0  0  0
   -0.1394   -2.7253   -0.2237 C   0  0  0  0  0  0  0  0  0  0  0  0
    0.1764   -1.2829   -0.2621 N   0  0  0  0  0  0  0  0  0  0  0  0
    1.0856   -0.8490   -1.3507 C   0  0  0  0  0  0  0  0  0  0  0  0
    2.0452    0.2128   -0.8767 C   0  0  0  0  0  0  0  0  0  0  0  0
    3.2072   -0.1830   -0.2012 C   0  0  0  0  0  0  0  0  0  0  0  0
    3.4627   -1.4868   -0.0211 F   0  0  0  0  0  0  0  0  0  0  0  0
    4.1319    0.7389    0.2840 C   0  0  0  0  0  0  0  0  0  0  0  0
    3.9104    2.0986    0.0994 C   0  0  0  0  0  0  0  0  0  0  0  0
    2.7652    2.5223   -0.5731 C   0  0  0  0  0  0  0  0  0  0  0  0
    1.8390    1.5884   -1.0572 C   0  0  0  0  0  0  0  0  0  0  0  0
    0.4511    2.2132   -1.8757 Cl  0  0  0  0  0  0  0  0  0  0  0  0
   -0.9111   -0.4382    0.0198 C   0  0  0  0  0  0  0  0  0  0  0  0
   -2.0361   -0.2380   -0.8061 C   0  0  0  0  0  0  0  0  0  0  0  0
   -3.0688    0.6748   -0.5042 C   0  0  0  0  0  0  0  0  0  0  0  0
   -3.0247    1.4276    0.6759 C   0  0  0  0  0  0  0  0  0  0  0  0
   -1.9377    1.2431    1.5376 C   0  0  0  0  0  0  0  0  0  0  0  0
   -0.9237    0.3212    1.2087 C   0  0  0  0  0  0  0  0  0  0  0  0
    0.1378    0.1605    2.1861 N   0  0  0  0  0  4  0  0  0  0  0  0
    0.1392   -0.8831    2.8526 O   0  0  0  0  0  1  0  0  0  0  0  0
    0.9033    1.1224    2.3403 O   0  0  0  0  0  0  0  0  0  0  0  0
   -4.1063    2.4327    0.9984 C   0  0  0  0  0  0  0  0  0  0  0  0
   -5.3086    2.1060    0.4525 F   0  0  0  0  0  0  0  0  0  0  0  0
   -4.3222    2.5620    2.3349 F   0  0  0  0  0  0  0  0  0  0  0  0
   -3.8042    3.6750    0.5388 F   0  0  0  0  0  0  0  0  0  0  0  0
   -2.2093   -0.9914   -2.0298 N   0  0  0  0  0  4  0  0  0  0  0  0
   -2.6931   -2.1258   -1.9256 O   0  0  0  0  0  1  0  0  0  0  0  0
   -1.9063   -0.4254   -3.0873 O   0  0  0  0  0  0  0  0  0  0  0  0
    1.2197   -3.1084    1.4280 H   0  0  0  0  0  0  0  0  0  0  0  0
    0.7132   -4.5566    0.5384 H   0  0  0  0  0  0  0  0  0  0  0  0
    1.9072   -3.4605   -0.1640 H   0  0  0  0  0  0  0  0  0  0  0  0
   -0.3085   -3.1108   -1.2356 H   0  0  0  0  0  0  0  0  0  0  0  0
   -1.0513   -2.9096    0.3588 H   0  0  0  0  0  0  0  0  0  0  0  0
    0.5376   -0.5237   -2.2391 H   0  0  0  0  0  0  0  0  0  0  0  0
    1.6778   -1.7029   -1.7056 H   0  0  0  0  0  0  0  0  0  0  0  0
    5.0155    0.3861    0.8074 H   0  0  0  0  0  0  0  0  0  0  0  0
    4.6221    2.8260    0.4813 H   0  0  0  0  0  0  0  0  0  0  0  0
    2.5949    3.5878   -0.7120 H   0  0  0  0  0  0  0  0  0  0  0  0
   -3.9069    0.7951   -1.1930 H   0  0  0  0  0  0  0  0  0  0  0  0
   -1.8764    1.8104    2.4677 H   0  0  0  0  0  0  0  0  0  0  0  0
  1  2  1  0
  2  3  1  0
  3  4  1  0
  4  5  1  0
  5  6  2  0
  6  7  1  0
  6  8  1  0
  8  9  2  0
  9 10  1  0
 10 11  2  0
 11 12  1  0
  3 13  1  0
 13 14  2  0
 14 15  1  0
 15 16  2  0
 16 17  1  0
 17 18  2  0
 18 19  1  0
 19 20  1  0
 19 21  2  0
 16 22  1  0
 22 23  1  0
 22 24  1  0
 22 25  1  0
 14 26  1  0
 26 27  1  0
 26 28  2  0
 11  5  1  0
 18 13  1  0
  1 29  1  0
  1 30  1  0
  1 31  1  0
  2 32  1  0
  2 33  1  0
  4 34  1  0
  4 35  1  0
  8 36  1  0
  9 37  1  0
 10 38  1  0
 15 39  1  0
 17 40  1  0
M  CHG  4  19   1  20  -1  26   1  27  -1
M  END
>  <Energy>  (2) 
142.15822317185652

>  <Real charge>  (2) 
0

>  <Mult>  (2) 
1

$$$$
mol_894 416
     RDKit          3D

 40 41  0  0  0  0  0  0  0  0999 V2000
    0.2180    3.4681   -1.7288 C   0  0  0  0  0  0  0  0  0  0  0  0
   -0.4167    2.1062   -1.9691 C   0  0  0  0  0  0  0  0  0  0  0  0
    0.1248    1.1038   -1.0270 N   0  0  0  0  0  0  0  0  0  0  0  0
    1.4280    0.5082   -1.4128 C   0  0  0  0  0  0  0  0  0  0  0  0
    2.1894   -0.0119   -0.2190 C   0  0  0  0  0  0  0  0  0  0  0  0
    2.1105   -1.3730    0.1021 C   0  0  0  0  0  0  0  0  0  0  0  0
    1.3644   -2.1925   -0.6523 F   0  0  0  0  0  0  0  0  0  0  0  0
    2.7749   -1.9155    1.1994 C   0  0  0  0  0  0  0  0  0  0  0  0
    3.5436   -1.0920    2.0135 C   0  0  0  0  0  0  0  0  0  0  0  0
    3.6395    0.2675    1.7196 C   0  0  0  0  0  0  0  0  0  0  0  0
    2.9682    0.8050    0.6131 C   0  0  0  0  0  0  0  0  0  0  0  0
    3.1512    2.4978    0.3268 Cl  0  0  0  0  0  0  0  0  0  0  0  0
   -0.8405    0.2144   -0.5161 C   0  0  0  0  0  0  0  0  0  0  0  0
   -1.4964   -0.8047   -1.2370 C   0  0  0  0  0  0  0  0  0  0  0  0
   -2.3973   -1.7161   -0.6449 C   0  0  0  0  0  0  0  0  0  0  0  0
   -2.7011   -1.6283    0.7193 C   0  0  0  0  0  0  0  0  0  0  0  0
   -2.0918   -0.6156    1.4678 C   0  0  0  0  0  0  0  0  0  0  0  0
   -1.1976    0.2801    0.8480 C   0  0  0  0  0  0  0  0  0  0  0  0
   -0.6470    1.3232    1.6943 N   0  0  0  0  0  4  0  0  0  0  0  0
    0.1477    0.9642    2.5746 O   0  0  0  0  0  1  0  0  0  0  0  0
   -1.0851    2.4703    1.5340 O   0  0  0  0  0  0  0  0  0  0  0  0
   -3.6390   -2.6169    1.3725 C   0  0  0  0  0  0  0  0  0  0  0  0
   -2.9779   -3.6905    1.8792 F   0  0  0  0  0  0  0  0  0  0  0  0
   -4.5666   -3.1124    0.5100 F   0  0  0  0  0  0  0  0  0  0  0  0
   -4.3371   -2.0757    2.4067 F   0  0  0  0  0  0  0  0  0  0  0  0
   -1.3061   -0.9612   -2.6642 N   0  0  0  0  0  4  0  0  0  0  0  0
   -0.5934   -1.9005   -3.0385 O   0  0  0  0  0  1  0  0  0  0  0  0
   -1.9160   -0.1760   -3.4013 O   0  0  0  0  0  0  0  0  0  0  0  0
    1.2868    3.4585   -1.9607 H   0  0  0  0  0  0  0  0  0  0  0  0
   -0.2528    4.2210   -2.3691 H   0  0  0  0  0  0  0  0  0  0  0  0
    0.1000    3.7834   -0.6876 H   0  0  0  0  0  0  0  0  0  0  0  0
   -1.5011    2.2182   -1.8406 H   0  0  0  0  0  0  0  0  0  0  0  0
   -0.2342    1.7998   -3.0054 H   0  0  0  0  0  0  0  0  0  0  0  0
    1.2972   -0.2840   -2.1577 H   0  0  0  0  0  0  0  0  0  0  0  0
    2.0469    1.2538   -1.9261 H   0  0  0  0  0  0  0  0  0  0  0  0
    2.6832   -2.9763    1.4129 H   0  0  0  0  0  0  0  0  0  0  0  0
    4.0616   -1.5017    2.8769 H   0  0  0  0  0  0  0  0  0  0  0  0
    4.2348    0.9113    2.3638 H   0  0  0  0  0  0  0  0  0  0  0  0
   -2.8625   -2.4933   -1.2542 H   0  0  0  0  0  0  0  0  0  0  0  0
   -2.3105   -0.5165    2.5323 H   0  0  0  0  0  0  0  0  0  0  0  0
  1  2  1  0
  2  3  1  0
  3  4  1  0
  4  5  1  0
  5  6  2  0
  6  7  1  0
  6  8  1  0
  8  9  2  0
  9 10  1  0
 10 11  2  0
 11 12  1  0
  3 13  1  0
 13 14  2  0
 14 15  1  0
 15 16  2  0
 16 17  1  0
 17 18  2  0
 18 19  1  0
 19 20  1  0
 19 21  2  0
 16 22  1  0
 22 23  1  0
 22 24  1  0
 22 25  1  0
 14 26  1  0
 26 27  1  0
 26 28  2  0
 11  5  1  0
 18 13  1  0
  1 29  1  0
  1 30  1  0
  1 31  1  0
  2 32  1  0
  2 33  1  0
  4 34  1  0
  4 35  1  0
  8 36  1  0
  9 37  1  0
 10 38  1  0
 15 39  1  0
 17 40  1  0
M  CHG  4  19   1  20  -1  26   1  27  -1
M  END
>  <Energy>  (3) 
142.33078840009003

>  <Real charge>  (3) 
0

>  <Mult>  (3) 
1

$$$$
mol_894 186
     RDKit          3D

 40 41  0  0  0  0  0  0  0  0999 V2000
    1.1144   -1.1192    3.4978 C   0  0  0  0  0  0  0  0  0  0  0  0
    0.0262   -1.4098    2.4746 C   0  0  0  0  0  0  0  0  0  0  0  0
    0.3414   -0.7689    1.1802 N   0  0  0  0  0  0  0  0  0  0  0  0
    1.2864   -1.5167    0.3143 C   0  0  0  0  0  0  0  0  0  0  0  0
    2.0098   -0.6106   -0.6506 C   0  0  0  0  0  0  0  0  0  0  0  0
    1.5286   -0.4827   -1.9598 C   0  0  0  0  0  0  0  0  0  0  0  0
    0.4375   -1.1643   -2.3375 F   0  0  0  0  0  0  0  0  0  0  0  0
    2.1392    0.3482   -2.8962 C   0  0  0  0  0  0  0  0  0  0  0  0
    3.2620    1.0831   -2.5342 C   0  0  0  0  0  0  0  0  0  0  0  0
    3.7626    0.9776   -1.2373 C   0  0  0  0  0  0  0  0  0  0  0  0
    3.1426    0.1386   -0.3017 C   0  0  0  0  0  0  0  0  0  0  0  0
    3.8380    0.0697    1.2772 Cl  0  0  0  0  0  0  0  0  0  0  0  0
   -0.7720   -0.1949    0.5363 C   0  0  0  0  0  0  0  0  0  0  0  0
   -1.8427   -0.8957   -0.0559 C   0  0  0  0  0  0  0  0  0  0  0  0
   -2.8922   -0.2611   -0.7549 C   0  0  0  0  0  0  0  0  0  0  0  0
   -2.9162    1.1330   -0.8854 C   0  0  0  0  0  0  0  0  0  0  0  0
   -1.8953    1.8708   -0.2766 C   0  0  0  0  0  0  0  0  0  0  0  0
   -0.8621    1.2085    0.4162 C   0  0  0  0  0  0  0  0  0  0  0  0
    0.1349    2.0571    1.0432 N   0  0  0  0  0  4  0  0  0  0  0  0
    0.0847    2.1711    2.2753 O   0  0  0  0  0  1  0  0  0  0  0  0
    0.8961    2.6749    0.2856 O   0  0  0  0  0  0  0  0  0  0  0  0
   -4.0416    1.8263   -1.6179 C   0  0  0  0  0  0  0  0  0  0  0  0
   -5.0598    2.1634   -0.7833 F   0  0  0  0  0  0  0  0  0  0  0  0
   -4.5898    1.0556   -2.5951 F   0  0  0  0  0  0  0  0  0  0  0  0
   -3.6464    2.9785   -2.2222 F   0  0  0  0  0  0  0  0  0  0  0  0
   -1.9516   -2.3359    0.0507 N   0  0  0  0  0  4  0  0  0  0  0  0
   -1.6570   -2.9995   -0.9507 O   0  0  0  0  0  1  0  0  0  0  0  0
   -2.3835   -2.7881    1.1188 O   0  0  0  0  0  0  0  0  0  0  0  0
    0.8289   -1.5208    4.4752 H   0  0  0  0  0  0  0  0  0  0  0  0
    1.2806   -0.0430    3.6062 H   0  0  0  0  0  0  0  0  0  0  0  0
    2.0642   -1.5818    3.2149 H   0  0  0  0  0  0  0  0  0  0  0  0
   -0.9200   -1.0285    2.8797 H   0  0  0  0  0  0  0  0  0  0  0  0
   -0.0766   -2.4942    2.3534 H   0  0  0  0  0  0  0  0  0  0  0  0
    2.0292   -2.0393    0.9288 H   0  0  0  0  0  0  0  0  0  0  0  0
    0.7774   -2.3220   -0.2260 H   0  0  0  0  0  0  0  0  0  0  0  0
    1.7304    0.4190   -3.8997 H   0  0  0  0  0  0  0  0  0  0  0  0
    3.7437    1.7406   -3.2535 H   0  0  0  0  0  0  0  0  0  0  0  0
    4.6364    1.5610   -0.9542 H   0  0  0  0  0  0  0  0  0  0  0  0
   -3.6904   -0.8602   -1.1974 H   0  0  0  0  0  0  0  0  0  0  0  0
   -1.8980    2.9602   -0.3379 H   0  0  0  0  0  0  0  0  0  0  0  0
  1  2  1  0
  2  3  1  0
  3  4  1  0
  4  5  1  0
  5  6  2  0
  6  7  1  0
  6  8  1  0
  8  9  2  0
  9 10  1  0
 10 11  2  0
 11 12  1  0
  3 13  1  0
 13 14  2  0
 14 15  1  0
 15 16  2  0
 16 17  1  0
 17 18  2  0
 18 19  1  0
 19 20  1  0
 19 21  2  0
 16 22  1  0
 22 23  1  0
 22 24  1  0
 22 25  1  0
 14 26  1  0
 26 27  1  0
 26 28  2  0
 11  5  1  0
 18 13  1  0
  1 29  1  0
  1 30  1  0
  1 31  1  0
  2 32  1  0
  2 33  1  0
  4 34  1  0
  4 35  1  0
  8 36  1  0
  9 37  1  0
 10 38  1  0
 15 39  1  0
 17 40  1  0
M  CHG  4  19   1  20  -1  26   1  27  -1
M  END
>  <Energy>  (4) 
142.3497802529517

>  <Real charge>  (4) 
0

>  <Mult>  (4) 
1

$$$$
