mol_456 183
     RDKit          3D

 24 24  0  0  0  0  0  0  0  0999 V2000
    3.4773   -0.0358    0.4051 C   0  0  0  0  0  0  0  0  0  0  0  0
    2.0660    0.5288    0.4553 C   0  0  0  0  0  0  0  0  0  0  0  0
    1.0172   -0.5810    0.3646 C   0  0  0  0  0  0  0  0  0  0  0  0
   -0.4121   -0.0484    0.4803 C   0  0  0  0  0  0  0  0  0  0  0  0
   -1.4578   -1.1597    0.4150 C   0  0  0  0  0  0  0  0  0  0  0  0
   -2.7578   -0.4113    0.1541 C   0  0  0  0  0  0  0  0  0  0  0  0
   -2.3670    0.8287   -0.6491 C   0  0  0  0  0  0  0  0  0  0  0  0
   -0.8400    0.8661   -0.6670 C   0  0  0  0  0  0  0  0  0  0  0  0
    3.6550   -0.7233    1.2383 H   0  0  0  0  0  0  0  0  0  0  0  0
    4.2116    0.7732    0.4702 H   0  0  0  0  0  0  0  0  0  0  0  0
    3.6501   -0.5772   -0.5305 H   0  0  0  0  0  0  0  0  0  0  0  0
    1.9397    1.2381   -0.3701 H   0  0  0  0  0  0  0  0  0  0  0  0
    1.9362    1.0885    1.3887 H   0  0  0  0  0  0  0  0  0  0  0  0
    1.1409   -1.1229   -0.5816 H   0  0  0  0  0  0  0  0  0  0  0  0
    1.1905   -1.3082    1.1680 H   0  0  0  0  0  0  0  0  0  0  0  0
   -0.5242    0.4905    1.4311 H   0  0  0  0  0  0  0  0  0  0  0  0
   -1.2493   -1.8460   -0.4150 H   0  0  0  0  0  0  0  0  0  0  0  0
   -1.5013   -1.7468    1.3374 H   0  0  0  0  0  0  0  0  0  0  0  0
   -3.4864   -1.0326   -0.3757 H   0  0  0  0  0  0  0  0  0  0  0  0
   -3.2129   -0.1063    1.1039 H   0  0  0  0  0  0  0  0  0  0  0  0
   -2.7660    0.7890   -1.6681 H   0  0  0  0  0  0  0  0  0  0  0  0
   -2.7735    1.7284   -0.1738 H   0  0  0  0  0  0  0  0  0  0  0  0
   -0.4749    0.4821   -1.6275 H   0  0  0  0  0  0  0  0  0  0  0  0
   -0.4611    1.8862   -0.5506 H   0  0  0  0  0  0  0  0  0  0  0  0
  1  2  1  0
  2  3  1  0
  3  4  1  0
  4  5  1  0
  5  6  1  0
  6  7  1  0
  7  8  1  0
  8  4  1  0
  1  9  1  0
  1 10  1  0
  1 11  1  0
  2 12  1  0
  2 13  1  0
  3 14  1  0
  3 15  1  0
  4 16  1  0
  5 17  1  0
  5 18  1  0
  6 19  1  0
  6 20  1  0
  7 21  1  0
  7 22  1  0
  8 23  1  0
  8 24  1  0
M  END
>  <Energy>  (1) 
5.443905587840728

>  <Real charge>  (1) 
0

>  <Mult>  (1) 
1

$$$$
mol_456 159
     RDKit          3D

 24 24  0  0  0  0  0  0  0  0999 V2000
    2.7275    0.2861   -0.9978 C   0  0  0  0  0  0  0  0  0  0  0  0
    2.2879   -0.3703    0.3016 C   0  0  0  0  0  0  0  0  0  0  0  0
    0.9514   -1.1098    0.1926 C   0  0  0  0  0  0  0  0  0  0  0  0
   -0.2440   -0.2242   -0.1661 C   0  0  0  0  0  0  0  0  0  0  0  0
   -1.5616   -0.9983   -0.1769 C   0  0  0  0  0  0  0  0  0  0  0  0
   -2.6212    0.0955   -0.1533 C   0  0  0  0  0  0  0  0  0  0  0  0
   -1.9883    1.2713    0.5906 C   0  0  0  0  0  0  0  0  0  0  0  0
   -0.5321    0.8863    0.8426 C   0  0  0  0  0  0  0  0  0  0  0  0
    2.7535   -0.4402   -1.8162 H   0  0  0  0  0  0  0  0  0  0  0  0
    2.0582    1.1039   -1.2805 H   0  0  0  0  0  0  0  0  0  0  0  0
    3.7324    0.7055   -0.8851 H   0  0  0  0  0  0  0  0  0  0  0  0
    3.0566   -1.0917    0.6040 H   0  0  0  0  0  0  0  0  0  0  0  0
    2.2411    0.3845    1.0945 H   0  0  0  0  0  0  0  0  0  0  0  0
    0.7614   -1.6108    1.1506 H   0  0  0  0  0  0  0  0  0  0  0  0
    1.0428   -1.9064   -0.5566 H   0  0  0  0  0  0  0  0  0  0  0  0
   -0.0941    0.2187   -1.1592 H   0  0  0  0  0  0  0  0  0  0  0  0
   -1.6554   -1.6262    0.7177 H   0  0  0  0  0  0  0  0  0  0  0  0
   -1.6589   -1.6442   -1.0550 H   0  0  0  0  0  0  0  0  0  0  0  0
   -2.8721    0.3990   -1.1765 H   0  0  0  0  0  0  0  0  0  0  0  0
   -3.5449   -0.2446    0.3250 H   0  0  0  0  0  0  0  0  0  0  0  0
   -2.5059    1.4772    1.5333 H   0  0  0  0  0  0  0  0  0  0  0  0
   -2.0496    2.1785   -0.0211 H   0  0  0  0  0  0  0  0  0  0  0  0
    0.1378    1.7435    0.7232 H   0  0  0  0  0  0  0  0  0  0  0  0
   -0.4225    0.5165    1.8695 H   0  0  0  0  0  0  0  0  0  0  0  0
  1  2  1  0
  2  3  1  0
  3  4  1  0
  4  5  1  0
  5  6  1  0
  6  7  1  0
  7  8  1  0
  8  4  1  0
  1  9  1  0
  1 10  1  0
  1 11  1  0
  2 12  1  0
  2 13  1  0
  3 14  1  0
  3 15  1  0
  4 16  1  0
  5 17  1  0
  5 18  1  0
  6 19  1  0
  6 20  1  0
  7 21  1  0
  7 22  1  0
  8 23  1  0
  8 24  1  0
M  END
>  <Energy>  (2) 
6.081180699657897

>  <Real charge>  (2) 
0

>  <Mult>  (2) 
1

$$$$
