mol_998 122
     RDKit          3D

 23 24  0  0  0  0  0  0  0  0999 V2000
    4.4880    0.1741   -0.2235 N   0  0  0  0  0  0  0  0  0  0  0  0
    3.1189    0.2046   -0.0049 C   0  0  0  0  0  0  0  0  0  0  0  0
    2.2309   -0.2857   -1.0772 C   0  0  0  0  0  0  0  0  0  0  0  0
    0.9448   -0.3529   -1.0502 N   0  0  0  0  0  0  0  0  0  0  0  0
    0.2847    0.0849    0.0838 N   0  0  0  0  0  0  0  0  0  0  0  0
   -1.1521   -0.0446   -0.0071 C   0  0  0  0  0  0  0  0  0  0  0  0
   -1.7403   -0.5678   -1.1777 C   0  0  0  0  0  0  0  0  0  0  0  0
   -3.1266   -0.7124   -1.3100 C   0  0  0  0  0  0  0  0  0  0  0  0
   -3.9661   -0.3362   -0.2701 C   0  0  0  0  0  0  0  0  0  0  0  0
   -3.4165    0.1823    0.8963 C   0  0  0  0  0  0  0  0  0  0  0  0
   -2.0272    0.3256    1.0250 C   0  0  0  0  0  0  0  0  0  0  0  0
    0.9691    0.6070    1.1958 C   0  0  0  0  0  0  0  0  0  0  0  0
    0.4575    1.0255    2.2343 O   0  0  0  0  0  0  0  0  0  0  0  0
    2.4622    0.6357    1.0784 C   0  0  0  0  0  0  0  0  0  0  0  0
    3.3497    1.2428    2.4439 Cl  0  0  0  0  0  0  0  0  0  0  0  0
    4.8059   -0.6426   -0.7415 H   0  0  0  0  0  0  0  0  0  0  0  0
    5.0228    0.3109    0.6354 H   0  0  0  0  0  0  0  0  0  0  0  0
    2.7425   -0.6285   -1.9925 H   0  0  0  0  0  0  0  0  0  0  0  0
   -1.1236   -0.8749   -2.0191 H   0  0  0  0  0  0  0  0  0  0  0  0
   -3.5425   -1.1187   -2.2280 H   0  0  0  0  0  0  0  0  0  0  0  0
   -5.0426   -0.4455   -0.3668 H   0  0  0  0  0  0  0  0  0  0  0  0
   -4.0646    0.4803    1.7171 H   0  0  0  0  0  0  0  0  0  0  0  0
   -1.6747    0.7361    1.9644 H   0  0  0  0  0  0  0  0  0  0  0  0
  1  2  1  0
  2  3  1  0
  3  4  2  0
  4  5  1  0
  5  6  1  0
  6  7  2  0
  7  8  1  0
  8  9  2  0
  9 10  1  0
 10 11  2  0
  5 12  1  0
 12 13  2  0
 12 14  1  0
 14 15  1  0
 11  6  1  0
 14  2  2  0
  1 16  1  0
  1 17  1  0
  3 18  1  0
  7 19  1  0
  8 20  1  0
  9 21  1  0
 10 22  1  0
 11 23  1  0
M  END
>  <Energy>  (1) 
112.52987424667292

>  <Real charge>  (1) 
0

>  <Mult>  (1) 
1

$$$$
