mol_1004 108
     RDKit          3D

 15 14  0  0  0  0  0  0  0  0999 V2000
   -2.1353    0.0411    0.2152 C   0  0  0  0  0  0  0  0  0  0  0  0
   -0.7428   -0.5589    0.3281 C   0  0  0  0  0  0  0  0  0  0  0  0
    0.2870    0.2632   -0.4491 C   0  0  0  0  0  0  0  0  0  0  0  0
    1.6791   -0.3502   -0.3268 C   0  0  0  0  0  0  0  0  0  0  0  0
    2.8949    0.6270   -1.2562 S   0  0  0  0  0  0  0  0  0  0  0  0
   -2.4640    0.0761   -0.8284 H   0  0  0  0  0  0  0  0  0  0  0  0
   -2.8547   -0.5622    0.7778 H   0  0  0  0  0  0  0  0  0  0  0  0
   -2.1577    1.0590    0.6172 H   0  0  0  0  0  0  0  0  0  0  0  0
   -0.4578   -0.6093    1.3854 H   0  0  0  0  0  0  0  0  0  0  0  0
   -0.7625   -1.5869   -0.0523 H   0  0  0  0  0  0  0  0  0  0  0  0
    0.2922    1.2906   -0.0634 H   0  0  0  0  0  0  0  0  0  0  0  0
   -0.0123    0.3111   -1.5039 H   0  0  0  0  0  0  0  0  0  0  0  0
    1.6852   -1.3717   -0.7204 H   0  0  0  0  0  0  0  0  0  0  0  0
    1.9935   -0.3886    0.7210 H   0  0  0  0  0  0  0  0  0  0  0  0
    2.7551    1.7597   -0.5518 H   0  0  0  0  0  0  0  0  0  0  0  0
  1  2  1  0
  2  3  1  0
  3  4  1  0
  4  5  1  0
  1  6  1  0
  1  7  1  0
  1  8  1  0
  2  9  1  0
  2 10  1  0
  3 11  1  0
  3 12  1  0
  4 13  1  0
  4 14  1  0
  5 15  1  0
M  END
>  <Energy>  (1) 
-1.3100667677943703

>  <Real charge>  (1) 
0

>  <Mult>  (1) 
1

$$$$
mol_1004 91
     RDKit          3D

 15 14  0  0  0  0  0  0  0  0999 V2000
    2.0053    0.6421    0.0575 C   0  0  0  0  0  0  0  0  0  0  0  0
    0.6546    0.4543    0.7318 C   0  0  0  0  0  0  0  0  0  0  0  0
   -0.2126   -0.5524   -0.0290 C   0  0  0  0  0  0  0  0  0  0  0  0
   -1.5455   -0.8549    0.6554 C   0  0  0  0  0  0  0  0  0  0  0  0
   -2.6843    0.5610    0.6487 S   0  0  0  0  0  0  0  0  0  0  0  0
    1.8847    1.0168   -0.9640 H   0  0  0  0  0  0  0  0  0  0  0  0
    2.5577   -0.3020    0.0148 H   0  0  0  0  0  0  0  0  0  0  0  0
    2.6100    1.3641    0.6152 H   0  0  0  0  0  0  0  0  0  0  0  0
    0.8126    0.1065    1.7593 H   0  0  0  0  0  0  0  0  0  0  0  0
    0.1550    1.4271    0.7908 H   0  0  0  0  0  0  0  0  0  0  0  0
    0.3421   -1.4957   -0.1147 H   0  0  0  0  0  0  0  0  0  0  0  0
   -0.3840   -0.2015   -1.0545 H   0  0  0  0  0  0  0  0  0  0  0  0
   -2.0414   -1.6813    0.1361 H   0  0  0  0  0  0  0  0  0  0  0  0
   -1.3819   -1.1665    1.6921 H   0  0  0  0  0  0  0  0  0  0  0  0
   -2.7723    0.6823   -0.6840 H   0  0  0  0  0  0  0  0  0  0  0  0
  1  2  1  0
  2  3  1  0
  3  4  1  0
  4  5  1  0
  1  6  1  0
  1  7  1  0
  1  8  1  0
  2  9  1  0
  2 10  1  0
  3 11  1  0
  3 12  1  0
  4 13  1  0
  4 14  1  0
  5 15  1  0
M  END
>  <Energy>  (2) 
-1.0334363077159325

>  <Real charge>  (2) 
0

>  <Mult>  (2) 
1

$$$$
mol_1004 21
     RDKit          3D

 15 14  0  0  0  0  0  0  0  0999 V2000
   -2.2146    0.3578    0.0784 C   0  0  0  0  0  0  0  0  0  0  0  0
   -0.7401    0.7240    0.1355 C   0  0  0  0  0  0  0  0  0  0  0  0
    0.1397   -0.5158    0.3076 C   0  0  0  0  0  0  0  0  0  0  0  0
    1.6157   -0.1333    0.3633 C   0  0  0  0  0  0  0  0  0  0  0  0
    2.6493   -1.6117    0.5675 S   0  0  0  0  0  0  0  0  0  0  0  0
   -2.5305   -0.1430    0.9991 H   0  0  0  0  0  0  0  0  0  0  0  0
   -2.8243    1.2584   -0.0448 H   0  0  0  0  0  0  0  0  0  0  0  0
   -2.4207   -0.3098   -0.7643 H   0  0  0  0  0  0  0  0  0  0  0  0
   -0.5739    1.4171    0.9685 H   0  0  0  0  0  0  0  0  0  0  0  0
   -0.4647    1.2511   -0.7854 H   0  0  0  0  0  0  0  0  0  0  0  0
   -0.1497   -1.0373    1.2288 H   0  0  0  0  0  0  0  0  0  0  0  0
   -0.0403   -1.2036   -0.5284 H   0  0  0  0  0  0  0  0  0  0  0  0
    1.8082    0.5424    1.2027 H   0  0  0  0  0  0  0  0  0  0  0  0
    1.9178    0.3759   -0.5575 H   0  0  0  0  0  0  0  0  0  0  0  0
    3.8280   -0.9723    0.5804 H   0  0  0  0  0  0  0  0  0  0  0  0
  1  2  1  0
  2  3  1  0
  3  4  1  0
  4  5  1  0
  1  6  1  0
  1  7  1  0
  1  8  1  0
  2  9  1  0
  2 10  1  0
  3 11  1  0
  3 12  1  0
  4 13  1  0
  4 14  1  0
  5 15  1  0
M  END
>  <Energy>  (3) 
-0.6224347247567371

>  <Real charge>  (3) 
0

>  <Mult>  (3) 
1

$$$$
mol_1004 50
     RDKit          3D

 15 14  0  0  0  0  0  0  0  0999 V2000
   -1.4506    0.8733   -0.7629 C   0  0  0  0  0  0  0  0  0  0  0  0
   -1.1703   -0.0496    0.4130 C   0  0  0  0  0  0  0  0  0  0  0  0
    0.3144   -0.1414    0.7777 C   0  0  0  0  0  0  0  0  0  0  0  0
    1.1564   -0.7921   -0.3171 C   0  0  0  0  0  0  0  0  0  0  0  0
    2.8784   -0.9836    0.2305 S   0  0  0  0  0  0  0  0  0  0  0  0
   -1.0412    1.8726   -0.5847 H   0  0  0  0  0  0  0  0  0  0  0  0
   -2.5305    0.9718   -0.9135 H   0  0  0  0  0  0  0  0  0  0  0  0
   -1.0218    0.4833   -1.6905 H   0  0  0  0  0  0  0  0  0  0  0  0
   -1.5634   -1.0493    0.1942 H   0  0  0  0  0  0  0  0  0  0  0  0
   -1.7196    0.3226    1.2861 H   0  0  0  0  0  0  0  0  0  0  0  0
    0.3957   -0.7270    1.7026 H   0  0  0  0  0  0  0  0  0  0  0  0
    0.6934    0.8639    1.0011 H   0  0  0  0  0  0  0  0  0  0  0  0
    0.7634   -1.7823   -0.5679 H   0  0  0  0  0  0  0  0  0  0  0  0
    1.1591   -0.1851   -1.2268 H   0  0  0  0  0  0  0  0  0  0  0  0
    3.1367    0.3228    0.3897 H   0  0  0  0  0  0  0  0  0  0  0  0
  1  2  1  0
  2  3  1  0
  3  4  1  0
  4  5  1  0
  1  6  1  0
  1  7  1  0
  1  8  1  0
  2  9  1  0
  2 10  1  0
  3 11  1  0
  3 12  1  0
  4 13  1  0
  4 14  1  0
  5 15  1  0
M  END
>  <Energy>  (4) 
-0.5119828291571004

>  <Real charge>  (4) 
0

>  <Mult>  (4) 
1

$$$$
mol_1004 113
     RDKit          3D

 15 14  0  0  0  0  0  0  0  0999 V2000
   -1.7594    0.2848    0.8717 C   0  0  0  0  0  0  0  0  0  0  0  0
   -0.8044    0.8215   -0.1834 C   0  0  0  0  0  0  0  0  0  0  0  0
    0.6599    0.4532    0.0731 C   0  0  0  0  0  0  0  0  0  0  0  0
    0.9220   -1.0476   -0.0273 C   0  0  0  0  0  0  0  0  0  0  0  0
    2.6929   -1.4021    0.1725 S   0  0  0  0  0  0  0  0  0  0  0  0
   -1.4576    0.6042    1.8741 H   0  0  0  0  0  0  0  0  0  0  0  0
   -1.8036   -0.8081    0.8546 H   0  0  0  0  0  0  0  0  0  0  0  0
   -2.7714    0.6595    0.6872 H   0  0  0  0  0  0  0  0  0  0  0  0
   -0.8886    1.9146   -0.2048 H   0  0  0  0  0  0  0  0  0  0  0  0
   -1.1124    0.4608   -1.1718 H   0  0  0  0  0  0  0  0  0  0  0  0
    1.2721    0.9853   -0.6665 H   0  0  0  0  0  0  0  0  0  0  0  0
    0.9576    0.8248    1.0618 H   0  0  0  0  0  0  0  0  0  0  0  0
    0.6000   -1.4322   -1.0001 H   0  0  0  0  0  0  0  0  0  0  0  0
    0.3828   -1.5940    0.7516 H   0  0  0  0  0  0  0  0  0  0  0  0
    3.1101   -0.7246   -0.9072 H   0  0  0  0  0  0  0  0  0  0  0  0
  1  2  1  0
  2  3  1  0
  3  4  1  0
  4  5  1  0
  1  6  1  0
  1  7  1  0
  1  8  1  0
  2  9  1  0
  2 10  1  0
  3 11  1  0
  3 12  1  0
  4 13  1  0
  4 14  1  0
  5 15  1  0
M  END
>  <Energy>  (5) 
-0.5006284318587777

>  <Real charge>  (5) 
0

>  <Mult>  (5) 
1

$$$$
mol_1004 191
     RDKit          3D

 15 14  0  0  0  0  0  0  0  0999 V2000
   -1.8404    0.0507   -0.0180 C   0  0  0  0  0  0  0  0  0  0  0  0
   -0.6129    0.3542   -0.8629 C   0  0  0  0  0  0  0  0  0  0  0  0
    0.6053   -0.5038   -0.5040 C   0  0  0  0  0  0  0  0  0  0  0  0
    1.1168   -0.3799    0.9317 C   0  0  0  0  0  0  0  0  0  0  0  0
    1.7127    1.2880    1.3357 S   0  0  0  0  0  0  0  0  0  0  0  0
   -2.0910   -1.0141   -0.0566 H   0  0  0  0  0  0  0  0  0  0  0  0
   -1.6881    0.3339    1.0276 H   0  0  0  0  0  0  0  0  0  0  0  0
   -2.7014    0.6147   -0.3910 H   0  0  0  0  0  0  0  0  0  0  0  0
   -0.8625    0.1698   -1.9150 H   0  0  0  0  0  0  0  0  0  0  0  0
   -0.3720    1.4201   -0.7874 H   0  0  0  0  0  0  0  0  0  0  0  0
    0.3513   -1.5565   -0.6835 H   0  0  0  0  0  0  0  0  0  0  0  0
    1.4184   -0.2676   -1.2025 H   0  0  0  0  0  0  0  0  0  0  0  0
    0.3404   -0.6583    1.6504 H   0  0  0  0  0  0  0  0  0  0  0  0
    1.9522   -1.0730    1.0762 H   0  0  0  0  0  0  0  0  0  0  0  0
    2.6712    1.3407    0.3992 H   0  0  0  0  0  0  0  0  0  0  0  0
  1  2  1  0
  2  3  1  0
  3  4  1  0
  4  5  1  0
  1  6  1  0
  1  7  1  0
  1  8  1  0
  2  9  1  0
  2 10  1  0
  3 11  1  0
  3 12  1  0
  4 13  1  0
  4 14  1  0
  5 15  1  0
M  END
>  <Energy>  (6) 
-0.39807698217157356

>  <Real charge>  (6) 
0

>  <Mult>  (6) 
1

$$$$
mol_1004 129
     RDKit          3D

 15 14  0  0  0  0  0  0  0  0999 V2000
   -2.1945   -0.2434    0.0956 C   0  0  0  0  0  0  0  0  0  0  0  0
   -0.7145   -0.5916    0.1506 C   0  0  0  0  0  0  0  0  0  0  0  0
    0.1567    0.6287   -0.1603 C   0  0  0  0  0  0  0  0  0  0  0  0
    1.6518    0.3171   -0.2137 C   0  0  0  0  0  0  0  0  0  0  0  0
    2.3423   -0.1063    1.4125 S   0  0  0  0  0  0  0  0  0  0  0  0
   -2.4419    0.5328    0.8268 H   0  0  0  0  0  0  0  0  0  0  0  0
   -2.8001   -1.1271    0.3199 H   0  0  0  0  0  0  0  0  0  0  0  0
   -2.4764    0.1177   -0.8986 H   0  0  0  0  0  0  0  0  0  0  0  0
   -0.5074   -1.3895   -0.5721 H   0  0  0  0  0  0  0  0  0  0  0  0
   -0.4849   -0.9865    1.1459 H   0  0  0  0  0  0  0  0  0  0  0  0
   -0.1383    1.0267   -1.1398 H   0  0  0  0  0  0  0  0  0  0  0  0
   -0.0388    1.4258    0.5680 H   0  0  0  0  0  0  0  0  0  0  0  0
    2.1928    1.1935   -0.5851 H   0  0  0  0  0  0  0  0  0  0  0  0
    1.8483   -0.5092   -0.9045 H   0  0  0  0  0  0  0  0  0  0  0  0
    3.6048   -0.2886    0.9985 H   0  0  0  0  0  0  0  0  0  0  0  0
  1  2  1  0
  2  3  1  0
  3  4  1  0
  4  5  1  0
  1  6  1  0
  1  7  1  0
  1  8  1  0
  2  9  1  0
  2 10  1  0
  3 11  1  0
  3 12  1  0
  4 13  1  0
  4 14  1  0
  5 15  1  0
M  END
>  <Energy>  (7) 
-0.320966936827743

>  <Real charge>  (7) 
0

>  <Mult>  (7) 
1

$$$$
