mol_599 170
     RDKit          3D

 15 14  0  0  0  0  0  0  0  0999 V2000
   -1.3540   -0.9138   -0.0569 C   0  0  0  0  0  0  0  0  0  0  0  0
   -0.2140    0.0269    0.3320 C   0  0  0  0  0  0  0  0  0  0  0  0
   -0.6521    1.4852    0.2008 C   0  0  0  0  0  0  0  0  0  0  0  0
    0.9953   -0.2342   -0.5309 C   0  0  0  0  0  0  0  0  0  0  0  0
    2.1828   -0.6325   -0.0568 C   0  0  0  0  0  0  0  0  0  0  0  0
   -1.6648   -0.7624   -1.0969 H   0  0  0  0  0  0  0  0  0  0  0  0
   -2.2278   -0.7475    0.5823 H   0  0  0  0  0  0  0  0  0  0  0  0
   -1.0536   -1.9615    0.0555 H   0  0  0  0  0  0  0  0  0  0  0  0
    0.0340   -0.1588    1.3849 H   0  0  0  0  0  0  0  0  0  0  0  0
   -0.9356    1.7301   -0.8291 H   0  0  0  0  0  0  0  0  0  0  0  0
    0.1538    2.1652    0.4988 H   0  0  0  0  0  0  0  0  0  0  0  0
   -1.5149    1.6892    0.8441 H   0  0  0  0  0  0  0  0  0  0  0  0
    0.8824   -0.0859   -1.6037 H   0  0  0  0  0  0  0  0  0  0  0  0
    2.3494   -0.7952    1.0035 H   0  0  0  0  0  0  0  0  0  0  0  0
    3.0188   -0.8050   -0.7277 H   0  0  0  0  0  0  0  0  0  0  0  0
  1  2  1  0
  2  3  1  0
  2  4  1  0
  4  5  2  3
  1  6  1  0
  1  7  1  0
  1  8  1  0
  2  9  1  0
  3 10  1  0
  3 11  1  0
  3 12  1  0
  4 13  1  0
  5 14  1  0
  5 15  1  0
M  END
>  <Energy>  (1) 
8.979880085750844

>  <Real charge>  (1) 
0

>  <Mult>  (1) 
1

$$$$
mol_599 93
     RDKit          3D

 15 14  0  0  0  0  0  0  0  0999 V2000
   -1.2571   -0.8095    0.7755 C   0  0  0  0  0  0  0  0  0  0  0  0
   -0.4299   -0.2060   -0.3620 C   0  0  0  0  0  0  0  0  0  0  0  0
   -0.5729    1.3183   -0.3569 C   0  0  0  0  0  0  0  0  0  0  0  0
    0.9901   -0.7229   -0.2871 C   0  0  0  0  0  0  0  0  0  0  0  0
    2.1103   -0.0095   -0.1106 C   0  0  0  0  0  0  0  0  0  0  0  0
   -2.3072   -0.5087    0.6943 H   0  0  0  0  0  0  0  0  0  0  0  0
   -0.8875   -0.4840    1.7546 H   0  0  0  0  0  0  0  0  0  0  0  0
   -1.2245   -1.9046    0.7505 H   0  0  0  0  0  0  0  0  0  0  0  0
   -0.8485   -0.5680   -1.3103 H   0  0  0  0  0  0  0  0  0  0  0  0
   -1.6238    1.6061   -0.4720 H   0  0  0  0  0  0  0  0  0  0  0  0
   -0.2100    1.7558    0.5799 H   0  0  0  0  0  0  0  0  0  0  0  0
   -0.0170    1.7699   -1.1858 H   0  0  0  0  0  0  0  0  0  0  0  0
    1.0953   -1.8022   -0.4001 H   0  0  0  0  0  0  0  0  0  0  0  0
    2.1053    1.0684    0.0089 H   0  0  0  0  0  0  0  0  0  0  0  0
    3.0774   -0.5030   -0.0790 H   0  0  0  0  0  0  0  0  0  0  0  0
  1  2  1  0
  2  3  1  0
  2  4  1  0
  4  5  2  3
  1  6  1  0
  1  7  1  0
  1  8  1  0
  2  9  1  0
  3 10  1  0
  3 11  1  0
  3 12  1  0
  4 13  1  0
  5 14  1  0
  5 15  1  0
M  END
>  <Energy>  (2) 
9.453096186068679

>  <Real charge>  (2) 
0

>  <Mult>  (2) 
1

$$$$
