mol_1100 288
     RDKit          3D

 21 20  0  0  0  0  0  0  0  0999 V2000
   -2.3466   -1.0574   -0.4419 C   0  0  0  0  0  0  0  0  0  0  0  0
   -1.1018   -0.9551    0.4283 C   0  0  0  0  0  0  0  0  0  0  0  0
    0.0838   -0.2393   -0.2583 C   0  0  0  0  0  0  0  0  0  0  0  0
    1.3153   -0.3339    0.6710 C   0  0  0  0  0  0  0  0  0  0  0  0
    2.5953    0.2126    0.0543 C   0  0  0  0  0  0  0  0  0  0  0  0
   -0.2507    1.2113   -0.6397 C   0  0  0  0  0  0  0  0  0  0  0  0
   -0.5632    1.9754    0.5162 O   0  0  0  0  0  0  0  0  0  0  0  0
   -2.8000   -0.0770   -0.6135 H   0  0  0  0  0  0  0  0  0  0  0  0
   -2.1135   -1.5092   -1.4111 H   0  0  0  0  0  0  0  0  0  0  0  0
   -3.0973   -1.6834    0.0514 H   0  0  0  0  0  0  0  0  0  0  0  0
   -0.7951   -1.9742    0.6959 H   0  0  0  0  0  0  0  0  0  0  0  0
   -1.3606   -0.4511    1.3673 H   0  0  0  0  0  0  0  0  0  0  0  0
    0.3162   -0.7819   -1.1843 H   0  0  0  0  0  0  0  0  0  0  0  0
    1.4888   -1.3872    0.9253 H   0  0  0  0  0  0  0  0  0  0  0  0
    1.1215    0.1868    1.6166 H   0  0  0  0  0  0  0  0  0  0  0  0
    3.4467   -0.0017    0.7086 H   0  0  0  0  0  0  0  0  0  0  0  0
    2.5483    1.2974   -0.0764 H   0  0  0  0  0  0  0  0  0  0  0  0
    2.7918   -0.2486   -0.9185 H   0  0  0  0  0  0  0  0  0  0  0  0
   -1.1046    1.2515   -1.3227 H   0  0  0  0  0  0  0  0  0  0  0  0
    0.5907    1.6872   -1.1525 H   0  0  0  0  0  0  0  0  0  0  0  0
   -0.7650    2.8780    0.2161 H   0  0  0  0  0  0  0  0  0  0  0  0
  1  2  1  0
  2  3  1  0
  3  4  1  0
  4  5  1  0
  3  6  1  0
  6  7  1  0
  1  8  1  0
  1  9  1  0
  1 10  1  0
  2 11  1  0
  2 12  1  0
  3 13  1  0
  4 14  1  0
  4 15  1  0
  5 16  1  0
  5 17  1  0
  5 18  1  0
  6 19  1  0
  6 20  1  0
  7 21  1  0
M  END
>  <Energy>  (1) 
4.702535285795243

>  <Real charge>  (1) 
0

>  <Mult>  (1) 
1

$$$$
mol_1100 388
     RDKit          3D

 21 20  0  0  0  0  0  0  0  0999 V2000
    1.9850   -0.3683    0.2276 C   0  0  0  0  0  0  0  0  0  0  0  0
    0.9832    0.0589   -0.8362 C   0  0  0  0  0  0  0  0  0  0  0  0
   -0.4206    0.4274   -0.3063 C   0  0  0  0  0  0  0  0  0  0  0  0
   -1.1373   -0.7212    0.4299 C   0  0  0  0  0  0  0  0  0  0  0  0
   -1.3109   -1.9778   -0.4110 C   0  0  0  0  0  0  0  0  0  0  0  0
   -0.3991    1.6742    0.5926 C   0  0  0  0  0  0  0  0  0  0  0  0
    0.1727    2.7731   -0.1038 O   0  0  0  0  0  0  0  0  0  0  0  0
    2.9458   -0.6051   -0.2415 H   0  0  0  0  0  0  0  0  0  0  0  0
    1.6503   -1.2623    0.7611 H   0  0  0  0  0  0  0  0  0  0  0  0
    2.1620    0.4272    0.9568 H   0  0  0  0  0  0  0  0  0  0  0  0
    1.4011    0.9132   -1.3829 H   0  0  0  0  0  0  0  0  0  0  0  0
    0.8943   -0.7449   -1.5765 H   0  0  0  0  0  0  0  0  0  0  0  0
   -1.0173    0.6830   -1.1935 H   0  0  0  0  0  0  0  0  0  0  0  0
   -0.6067   -0.9757    1.3548 H   0  0  0  0  0  0  0  0  0  0  0  0
   -2.1346   -0.3778    0.7330 H   0  0  0  0  0  0  0  0  0  0  0  0
   -0.3503   -2.4551   -0.6248 H   0  0  0  0  0  0  0  0  0  0  0  0
   -1.9272   -2.7058    0.1265 H   0  0  0  0  0  0  0  0  0  0  0  0
   -1.8063   -1.7505   -1.3601 H   0  0  0  0  0  0  0  0  0  0  0  0
    0.1760    1.5010    1.5077 H   0  0  0  0  0  0  0  0  0  0  0  0
   -1.4190    1.9530    0.8791 H   0  0  0  0  0  0  0  0  0  0  0  0
    0.1588    3.5335    0.5021 H   0  0  0  0  0  0  0  0  0  0  0  0
  1  2  1  0
  2  3  1  0
  3  4  1  0
  4  5  1  0
  3  6  1  0
  6  7  1  0
  1  8  1  0
  1  9  1  0
  1 10  1  0
  2 11  1  0
  2 12  1  0
  3 13  1  0
  4 14  1  0
  4 15  1  0
  5 16  1  0
  5 17  1  0
  5 18  1  0
  6 19  1  0
  6 20  1  0
  7 21  1  0
M  END
>  <Energy>  (2) 
4.840089103323065

>  <Real charge>  (2) 
0

>  <Mult>  (2) 
1

$$$$
mol_1100 148
     RDKit          3D

 21 20  0  0  0  0  0  0  0  0999 V2000
   -1.3195    1.9159   -0.1793 C   0  0  0  0  0  0  0  0  0  0  0  0
   -1.1095    0.4460   -0.5156 C   0  0  0  0  0  0  0  0  0  0  0  0
   -0.2664   -0.3168    0.5293 C   0  0  0  0  0  0  0  0  0  0  0  0
    1.1304    0.2885    0.7752 C   0  0  0  0  0  0  0  0  0  0  0  0
    2.0296    0.3640   -0.4511 C   0  0  0  0  0  0  0  0  0  0  0  0
   -0.1634   -1.8039    0.1542 C   0  0  0  0  0  0  0  0  0  0  0  0
   -1.4542   -2.4012    0.1844 O   0  0  0  0  0  0  0  0  0  0  0  0
   -2.0143    2.3680   -0.8945 H   0  0  0  0  0  0  0  0  0  0  0  0
   -0.3831    2.4788   -0.2305 H   0  0  0  0  0  0  0  0  0  0  0  0
   -1.7424    2.0332    0.8234 H   0  0  0  0  0  0  0  0  0  0  0  0
   -0.6537    0.3645   -1.5092 H   0  0  0  0  0  0  0  0  0  0  0  0
   -2.0982   -0.0230   -0.5925 H   0  0  0  0  0  0  0  0  0  0  0  0
   -0.8156   -0.2595    1.4798 H   0  0  0  0  0  0  0  0  0  0  0  0
    1.6425   -0.3036    1.5443 H   0  0  0  0  0  0  0  0  0  0  0  0
    1.0256    1.2946    1.1978 H   0  0  0  0  0  0  0  0  0  0  0  0
    2.2136   -0.6263   -0.8770 H   0  0  0  0  0  0  0  0  0  0  0  0
    1.5996    1.0026   -1.2278 H   0  0  0  0  0  0  0  0  0  0  0  0
    2.9996    0.7900   -0.1742 H   0  0  0  0  0  0  0  0  0  0  0  0
    0.2501   -1.9356   -0.8507 H   0  0  0  0  0  0  0  0  0  0  0  0
    0.4706   -2.3394    0.8686 H   0  0  0  0  0  0  0  0  0  0  0  0
   -1.3411   -3.3368   -0.0548 H   0  0  0  0  0  0  0  0  0  0  0  0
  1  2  1  0
  2  3  1  0
  3  4  1  0
  4  5  1  0
  3  6  1  0
  6  7  1  0
  1  8  1  0
  1  9  1  0
  1 10  1  0
  2 11  1  0
  2 12  1  0
  3 13  1  0
  4 14  1  0
  4 15  1  0
  5 16  1  0
  5 17  1  0
  5 18  1  0
  6 19  1  0
  6 20  1  0
  7 21  1  0
M  END
>  <Energy>  (3) 
4.844592753923249

>  <Real charge>  (3) 
0

>  <Mult>  (3) 
1

$$$$
mol_1100 330
     RDKit          3D

 21 20  0  0  0  0  0  0  0  0999 V2000
    2.3795    0.7301    0.4921 C   0  0  0  0  0  0  0  0  0  0  0  0
    1.5016   -0.4342    0.0534 C   0  0  0  0  0  0  0  0  0  0  0  0
   -0.0041   -0.2204    0.3311 C   0  0  0  0  0  0  0  0  0  0  0  0
   -0.5612    0.9544   -0.5019 C   0  0  0  0  0  0  0  0  0  0  0  0
   -2.0429    1.2224   -0.2734 C   0  0  0  0  0  0  0  0  0  0  0  0
   -0.7630   -1.5351    0.0816 C   0  0  0  0  0  0  0  0  0  0  0  0
   -0.7251   -1.8853   -1.2946 O   0  0  0  0  0  0  0  0  0  0  0  0
    2.2043    1.6206   -0.1179 H   0  0  0  0  0  0  0  0  0  0  0  0
    2.2006    0.9847    1.5414 H   0  0  0  0  0  0  0  0  0  0  0  0
    3.4358    0.4626    0.3846 H   0  0  0  0  0  0  0  0  0  0  0  0
    1.8402   -1.3293    0.5902 H   0  0  0  0  0  0  0  0  0  0  0  0
    1.6688   -0.6249   -1.0136 H   0  0  0  0  0  0  0  0  0  0  0  0
   -0.1209    0.0259    1.3949 H   0  0  0  0  0  0  0  0  0  0  0  0
   -0.0207    1.8720   -0.2443 H   0  0  0  0  0  0  0  0  0  0  0  0
   -0.3895    0.7791   -1.5707 H   0  0  0  0  0  0  0  0  0  0  0  0
   -2.6638    0.4105   -0.6629 H   0  0  0  0  0  0  0  0  0  0  0  0
   -2.3413    2.1399   -0.7913 H   0  0  0  0  0  0  0  0  0  0  0  0
   -2.2601    1.3491    0.7917 H   0  0  0  0  0  0  0  0  0  0  0  0
   -1.8092   -1.4511    0.3917 H   0  0  0  0  0  0  0  0  0  0  0  0
   -0.3137   -2.3517    0.6574 H   0  0  0  0  0  0  0  0  0  0  0  0
   -1.2153   -2.7195   -1.3906 H   0  0  0  0  0  0  0  0  0  0  0  0
  1  2  1  0
  2  3  1  0
  3  4  1  0
  4  5  1  0
  3  6  1  0
  6  7  1  0
  1  8  1  0
  1  9  1  0
  1 10  1  0
  2 11  1  0
  2 12  1  0
  3 13  1  0
  4 14  1  0
  4 15  1  0
  5 16  1  0
  5 17  1  0
  5 18  1  0
  6 19  1  0
  6 20  1  0
  7 21  1  0
M  END
>  <Energy>  (4) 
4.855386623947652

>  <Real charge>  (4) 
0

>  <Mult>  (4) 
1

$$$$
mol_1100 195
     RDKit          3D

 21 20  0  0  0  0  0  0  0  0999 V2000
   -1.4370   -1.7111    0.6926 C   0  0  0  0  0  0  0  0  0  0  0  0
   -1.0261   -0.8581   -0.4990 C   0  0  0  0  0  0  0  0  0  0  0  0
   -0.4142    0.5017   -0.1103 C   0  0  0  0  0  0  0  0  0  0  0  0
    0.8292    0.3983    0.8006 C   0  0  0  0  0  0  0  0  0  0  0  0
    2.0032   -0.3688    0.2082 C   0  0  0  0  0  0  0  0  0  0  0  0
   -0.1403    1.3199   -1.3836 C   0  0  0  0  0  0  0  0  0  0  0  0
    0.3577    2.6129   -1.0664 O   0  0  0  0  0  0  0  0  0  0  0  0
   -1.9683   -2.6043    0.3482 H   0  0  0  0  0  0  0  0  0  0  0  0
   -2.1038   -1.1577    1.3611 H   0  0  0  0  0  0  0  0  0  0  0  0
   -0.5682   -2.0465    1.2662 H   0  0  0  0  0  0  0  0  0  0  0  0
   -1.9196   -0.6806   -1.1111 H   0  0  0  0  0  0  0  0  0  0  0  0
   -0.3316   -1.4269   -1.1282 H   0  0  0  0  0  0  0  0  0  0  0  0
   -1.1659    1.0542    0.4710 H   0  0  0  0  0  0  0  0  0  0  0  0
    0.5476   -0.0710    1.7506 H   0  0  0  0  0  0  0  0  0  0  0  0
    1.1712    1.4068    1.0640 H   0  0  0  0  0  0  0  0  0  0  0  0
    2.3674    0.0989   -0.7108 H   0  0  0  0  0  0  0  0  0  0  0  0
    2.8338   -0.3846    0.9217 H   0  0  0  0  0  0  0  0  0  0  0  0
    1.7376   -1.4069   -0.0104 H   0  0  0  0  0  0  0  0  0  0  0  0
   -1.0594    1.4494   -1.9656 H   0  0  0  0  0  0  0  0  0  0  0  0
    0.5897    0.8241   -2.0307 H   0  0  0  0  0  0  0  0  0  0  0  0
   -0.3030    3.0502   -0.5027 H   0  0  0  0  0  0  0  0  0  0  0  0
  1  2  1  0
  2  3  1  0
  3  4  1  0
  4  5  1  0
  3  6  1  0
  6  7  1  0
  1  8  1  0
  1  9  1  0
  1 10  1  0
  2 11  1  0
  2 12  1  0
  3 13  1  0
  4 14  1  0
  4 15  1  0
  5 16  1  0
  5 17  1  0
  5 18  1  0
  6 19  1  0
  6 20  1  0
  7 21  1  0
M  END
>  <Energy>  (5) 
4.9112725485373145

>  <Real charge>  (5) 
0

>  <Mult>  (5) 
1

$$$$
mol_1100 33
     RDKit          3D

 21 20  0  0  0  0  0  0  0  0999 V2000
   -2.3888   -0.5784   -0.6388 C   0  0  0  0  0  0  0  0  0  0  0  0
   -0.8969   -0.8737   -0.5584 C   0  0  0  0  0  0  0  0  0  0  0  0
   -0.1694   -0.0686    0.5362 C   0  0  0  0  0  0  0  0  0  0  0  0
    1.2535   -0.6218    0.7838 C   0  0  0  0  0  0  0  0  0  0  0  0
    2.2181   -0.4799   -0.3857 C   0  0  0  0  0  0  0  0  0  0  0  0
   -0.1744    1.4379    0.2370 C   0  0  0  0  0  0  0  0  0  0  0  0
    0.5149    2.1435    1.2613 O   0  0  0  0  0  0  0  0  0  0  0  0
   -2.5796    0.4459   -0.9713 H   0  0  0  0  0  0  0  0  0  0  0  0
   -2.8652   -1.2521   -1.3585 H   0  0  0  0  0  0  0  0  0  0  0  0
   -2.8720   -0.7251    0.3323 H   0  0  0  0  0  0  0  0  0  0  0  0
   -0.4475   -0.6789   -1.5390 H   0  0  0  0  0  0  0  0  0  0  0  0
   -0.7745   -1.9455   -0.3593 H   0  0  0  0  0  0  0  0  0  0  0  0
   -0.7096   -0.2150    1.4823 H   0  0  0  0  0  0  0  0  0  0  0  0
    1.1802   -1.6845    1.0475 H   0  0  0  0  0  0  0  0  0  0  0  0
    1.6905   -0.1255    1.6589 H   0  0  0  0  0  0  0  0  0  0  0  0
    2.3830    0.5693   -0.6467 H   0  0  0  0  0  0  0  0  0  0  0  0
    1.8566   -1.0074   -1.2728 H   0  0  0  0  0  0  0  0  0  0  0  0
    3.1895   -0.9095   -0.1194 H   0  0  0  0  0  0  0  0  0  0  0  0
   -1.1973    1.8247    0.2054 H   0  0  0  0  0  0  0  0  0  0  0  0
    0.3039    1.6577   -0.7227 H   0  0  0  0  0  0  0  0  0  0  0  0
    0.4850    3.0869    1.0278 H   0  0  0  0  0  0  0  0  0  0  0  0
  1  2  1  0
  2  3  1  0
  3  4  1  0
  4  5  1  0
  3  6  1  0
  6  7  1  0
  1  8  1  0
  1  9  1  0
  1 10  1  0
  2 11  1  0
  2 12  1  0
  3 13  1  0
  4 14  1  0
  4 15  1  0
  5 16  1  0
  5 17  1  0
  5 18  1  0
  6 19  1  0
  6 20  1  0
  7 21  1  0
M  END
>  <Energy>  (6) 
5.0003414813981735

>  <Real charge>  (6) 
0

>  <Mult>  (6) 
1

$$$$
mol_1100 66
     RDKit          3D

 21 20  0  0  0  0  0  0  0  0999 V2000
   -2.4229    0.5427    0.4966 C   0  0  0  0  0  0  0  0  0  0  0  0
   -1.2085    0.8067   -0.3822 C   0  0  0  0  0  0  0  0  0  0  0  0
    0.0935    0.1548    0.1358 C   0  0  0  0  0  0  0  0  0  0  0  0
    1.2568    0.5913   -0.7834 C   0  0  0  0  0  0  0  0  0  0  0  0
    2.6267    0.1345   -0.3018 C   0  0  0  0  0  0  0  0  0  0  0  0
   -0.0114   -1.3743    0.2604 C   0  0  0  0  0  0  0  0  0  0  0  0
   -0.2090   -1.9957   -1.0014 O   0  0  0  0  0  0  0  0  0  0  0  0
   -2.2227    0.8155    1.5374 H   0  0  0  0  0  0  0  0  0  0  0  0
   -2.7237   -0.5083    0.4624 H   0  0  0  0  0  0  0  0  0  0  0  0
   -3.2732    1.1380    0.1483 H   0  0  0  0  0  0  0  0  0  0  0  0
   -1.0628    1.8932   -0.4351 H   0  0  0  0  0  0  0  0  0  0  0  0
   -1.4247    0.4744   -1.4045 H   0  0  0  0  0  0  0  0  0  0  0  0
    0.2884    0.5536    1.1405 H   0  0  0  0  0  0  0  0  0  0  0  0
    1.0945    0.2247   -1.8042 H   0  0  0  0  0  0  0  0  0  0  0  0
    1.2704    1.6869   -0.8442 H   0  0  0  0  0  0  0  0  0  0  0  0
    3.4097    0.5812   -0.9233 H   0  0  0  0  0  0  0  0  0  0  0  0
    2.7356   -0.9517   -0.3687 H   0  0  0  0  0  0  0  0  0  0  0  0
    2.8019    0.4402    0.7344 H   0  0  0  0  0  0  0  0  0  0  0  0
   -0.8280   -1.6710    0.9258 H   0  0  0  0  0  0  0  0  0  0  0  0
    0.9024   -1.7900    0.6956 H   0  0  0  0  0  0  0  0  0  0  0  0
   -1.0932   -1.7467   -1.3185 H   0  0  0  0  0  0  0  0  0  0  0  0
  1  2  1  0
  2  3  1  0
  3  4  1  0
  4  5  1  0
  3  6  1  0
  6  7  1  0
  1  8  1  0
  1  9  1  0
  1 10  1  0
  2 11  1  0
  2 12  1  0
  3 13  1  0
  4 14  1  0
  4 15  1  0
  5 16  1  0
  5 17  1  0
  5 18  1  0
  6 19  1  0
  6 20  1  0
  7 21  1  0
M  END
>  <Energy>  (7) 
5.040992748257697

>  <Real charge>  (7) 
0

>  <Mult>  (7) 
1

$$$$
mol_1100 344
     RDKit          3D

 21 20  0  0  0  0  0  0  0  0999 V2000
    2.3369   -0.8989    0.1522 C   0  0  0  0  0  0  0  0  0  0  0  0
    1.4936    0.3511   -0.0622 C   0  0  0  0  0  0  0  0  0  0  0  0
   -0.0034    0.1694    0.2859 C   0  0  0  0  0  0  0  0  0  0  0  0
   -0.6645   -0.8990   -0.6094 C   0  0  0  0  0  0  0  0  0  0  0  0
   -2.1260   -1.1704   -0.2769 C   0  0  0  0  0  0  0  0  0  0  0  0
   -0.7322    1.5208    0.1863 C   0  0  0  0  0  0  0  0  0  0  0  0
   -0.1445    2.4629    1.0761 O   0  0  0  0  0  0  0  0  0  0  0  0
    2.2023   -1.2963    1.1630 H   0  0  0  0  0  0  0  0  0  0  0  0
    3.3975   -0.6607    0.0209 H   0  0  0  0  0  0  0  0  0  0  0  0
    2.0883   -1.6831   -0.5683 H   0  0  0  0  0  0  0  0  0  0  0  0
    1.5975    0.6792   -1.1038 H   0  0  0  0  0  0  0  0  0  0  0  0
    1.9211    1.1456    0.5610 H   0  0  0  0  0  0  0  0  0  0  0  0
   -0.0565   -0.1645    1.3311 H   0  0  0  0  0  0  0  0  0  0  0  0
   -0.5855   -0.6056   -1.6632 H   0  0  0  0  0  0  0  0  0  0  0  0
   -0.1288   -1.8486   -0.5043 H   0  0  0  0  0  0  0  0  0  0  0  0
   -2.2531   -1.3937    0.7869 H   0  0  0  0  0  0  0  0  0  0  0  0
   -2.7637   -0.3203   -0.5355 H   0  0  0  0  0  0  0  0  0  0  0  0
   -2.4853   -2.0322   -0.8489 H   0  0  0  0  0  0  0  0  0  0  0  0
   -0.6762    1.9214   -0.8315 H   0  0  0  0  0  0  0  0  0  0  0  0
   -1.7842    1.4259    0.4687 H   0  0  0  0  0  0  0  0  0  0  0  0
   -0.6333    3.2970    0.9719 H   0  0  0  0  0  0  0  0  0  0  0  0
  1  2  1  0
  2  3  1  0
  3  4  1  0
  4  5  1  0
  3  6  1  0
  6  7  1  0
  1  8  1  0
  1  9  1  0
  1 10  1  0
  2 11  1  0
  2 12  1  0
  3 13  1  0
  4 14  1  0
  4 15  1  0
  5 16  1  0
  5 17  1  0
  5 18  1  0
  6 19  1  0
  6 20  1  0
  7 21  1  0
M  END
>  <Energy>  (8) 
5.11420433901108

>  <Real charge>  (8) 
0

>  <Mult>  (8) 
1

$$$$
mol_1100 236
     RDKit          3D

 21 20  0  0  0  0  0  0  0  0999 V2000
   -2.0318   -1.1721    0.7681 C   0  0  0  0  0  0  0  0  0  0  0  0
   -1.5307    0.0579    0.0229 C   0  0  0  0  0  0  0  0  0  0  0  0
   -0.0065    0.2934    0.1480 C   0  0  0  0  0  0  0  0  0  0  0  0
    0.7974   -0.8770   -0.4550 C   0  0  0  0  0  0  0  0  0  0  0  0
    2.3069   -0.7330   -0.3101 C   0  0  0  0  0  0  0  0  0  0  0  0
    0.3713    1.6349   -0.5058 C   0  0  0  0  0  0  0  0  0  0  0  0
   -0.3385    2.7144    0.0909 O   0  0  0  0  0  0  0  0  0  0  0  0
   -1.7098   -1.1575    1.8140 H   0  0  0  0  0  0  0  0  0  0  0  0
   -1.6774   -2.0975    0.3055 H   0  0  0  0  0  0  0  0  0  0  0  0
   -3.1264   -1.1984    0.7515 H   0  0  0  0  0  0  0  0  0  0  0  0
   -1.8100   -0.0251   -1.0346 H   0  0  0  0  0  0  0  0  0  0  0  0
   -2.0692    0.9254    0.4226 H   0  0  0  0  0  0  0  0  0  0  0  0
    0.2254    0.3636    1.2194 H   0  0  0  0  0  0  0  0  0  0  0  0
    0.5138   -1.8114    0.0414 H   0  0  0  0  0  0  0  0  0  0  0  0
    0.5491   -0.9942   -1.5168 H   0  0  0  0  0  0  0  0  0  0  0  0
    2.5860   -0.5399    0.7304 H   0  0  0  0  0  0  0  0  0  0  0  0
    2.6971    0.0763   -0.9337 H   0  0  0  0  0  0  0  0  0  0  0  0
    2.8023   -1.6564   -0.6277 H   0  0  0  0  0  0  0  0  0  0  0  0
    1.4371    1.8526   -0.3947 H   0  0  0  0  0  0  0  0  0  0  0  0
    0.1372    1.6278   -1.5755 H   0  0  0  0  0  0  0  0  0  0  0  0
   -0.1234    2.7160    1.0392 H   0  0  0  0  0  0  0  0  0  0  0  0
  1  2  1  0
  2  3  1  0
  3  4  1  0
  4  5  1  0
  3  6  1  0
  6  7  1  0
  1  8  1  0
  1  9  1  0
  1 10  1  0
  2 11  1  0
  2 12  1  0
  3 13  1  0
  4 14  1  0
  4 15  1  0
  5 16  1  0
  5 17  1  0
  5 18  1  0
  6 19  1  0
  6 20  1  0
  7 21  1  0
M  END
>  <Energy>  (9) 
5.167802129416891

>  <Real charge>  (9) 
0

>  <Mult>  (9) 
1

$$$$
mol_1100 204
     RDKit          3D

 21 20  0  0  0  0  0  0  0  0999 V2000
    2.1567   -0.9543   -0.0103 C   0  0  0  0  0  0  0  0  0  0  0  0
    0.8587   -0.4308   -0.6106 C   0  0  0  0  0  0  0  0  0  0  0  0
   -0.2131   -0.0671    0.4396 C   0  0  0  0  0  0  0  0  0  0  0  0
   -1.4968    0.4652   -0.2373 C   0  0  0  0  0  0  0  0  0  0  0  0
   -2.2079   -0.5648   -1.1046 C   0  0  0  0  0  0  0  0  0  0  0  0
    0.2813    0.9566    1.4776 C   0  0  0  0  0  0  0  0  0  0  0  0
    0.6600    2.1851    0.8729 O   0  0  0  0  0  0  0  0  0  0  0  0
    2.6933   -0.1723    0.5346 H   0  0  0  0  0  0  0  0  0  0  0  0
    1.9661   -1.7884    0.6722 H   0  0  0  0  0  0  0  0  0  0  0  0
    2.8189   -1.3122   -0.8055 H   0  0  0  0  0  0  0  0  0  0  0  0
    0.4679   -1.2126   -1.2716 H   0  0  0  0  0  0  0  0  0  0  0  0
    1.0796    0.4337   -1.2476 H   0  0  0  0  0  0  0  0  0  0  0  0
   -0.4737   -0.9818    0.9889 H   0  0  0  0  0  0  0  0  0  0  0  0
   -1.2676    1.3474   -0.8472 H   0  0  0  0  0  0  0  0  0  0  0  0
   -2.2004    0.7925    0.5385 H   0  0  0  0  0  0  0  0  0  0  0  0
   -1.6225   -0.8183   -1.9928 H   0  0  0  0  0  0  0  0  0  0  0  0
   -3.1676   -0.1651   -1.4484 H   0  0  0  0  0  0  0  0  0  0  0  0
   -2.4061   -1.4831   -0.5431 H   0  0  0  0  0  0  0  0  0  0  0  0
   -0.5145    1.1756    2.1978 H   0  0  0  0  0  0  0  0  0  0  0  0
    1.1294    0.5733    2.0535 H   0  0  0  0  0  0  0  0  0  0  0  0
    1.4582    2.0211    0.3435 H   0  0  0  0  0  0  0  0  0  0  0  0
  1  2  1  0
  2  3  1  0
  3  4  1  0
  4  5  1  0
  3  6  1  0
  6  7  1  0
  1  8  1  0
  1  9  1  0
  1 10  1  0
  2 11  1  0
  2 12  1  0
  3 13  1  0
  4 14  1  0
  4 15  1  0
  5 16  1  0
  5 17  1  0
  5 18  1  0
  6 19  1  0
  6 20  1  0
  7 21  1  0
M  END
>  <Energy>  (10) 
5.207578692585736

>  <Real charge>  (10) 
0

>  <Mult>  (10) 
1

$$$$
mol_1100 50
     RDKit          3D

 21 20  0  0  0  0  0  0  0  0999 V2000
   -2.1816    0.7950   -0.7064 C   0  0  0  0  0  0  0  0  0  0  0  0
   -0.7102    0.9106   -0.3308 C   0  0  0  0  0  0  0  0  0  0  0  0
   -0.0184   -0.4499   -0.0977 C   0  0  0  0  0  0  0  0  0  0  0  0
    1.4733   -0.2598    0.2596 C   0  0  0  0  0  0  0  0  0  0  0  0
    2.3080    0.3098   -0.8800 C   0  0  0  0  0  0  0  0  0  0  0  0
   -0.7155   -1.2894    0.9883 C   0  0  0  0  0  0  0  0  0  0  0  0
   -0.8321   -0.5818    2.2146 O   0  0  0  0  0  0  0  0  0  0  0  0
   -2.5774    1.7796   -0.9762 H   0  0  0  0  0  0  0  0  0  0  0  0
   -2.3173    0.1291   -1.5644 H   0  0  0  0  0  0  0  0  0  0  0  0
   -2.7818    0.4181    0.1268 H   0  0  0  0  0  0  0  0  0  0  0  0
   -0.2060    1.4416   -1.1458 H   0  0  0  0  0  0  0  0  0  0  0  0
   -0.6165    1.5429    0.5602 H   0  0  0  0  0  0  0  0  0  0  0  0
   -0.0687   -1.0265   -1.0312 H   0  0  0  0  0  0  0  0  0  0  0  0
    1.9025   -1.2310    0.5357 H   0  0  0  0  0  0  0  0  0  0  0  0
    1.5774    0.3923    1.1348 H   0  0  0  0  0  0  0  0  0  0  0  0
    3.3676    0.3071   -0.6043 H   0  0  0  0  0  0  0  0  0  0  0  0
    2.1941   -0.2891   -1.7890 H   0  0  0  0  0  0  0  0  0  0  0  0
    2.0314    1.3432   -1.1065 H   0  0  0  0  0  0  0  0  0  0  0  0
   -1.7230   -1.5740    0.6698 H   0  0  0  0  0  0  0  0  0  0  0  0
   -0.1697   -2.2206    1.1767 H   0  0  0  0  0  0  0  0  0  0  0  0
    0.0639   -0.4472    2.5657 H   0  0  0  0  0  0  0  0  0  0  0  0
  1  2  1  0
  2  3  1  0
  3  4  1  0
  4  5  1  0
  3  6  1  0
  6  7  1  0
  1  8  1  0
  1  9  1  0
  1 10  1  0
  2 11  1  0
  2 12  1  0
  3 13  1  0
  4 14  1  0
  4 15  1  0
  5 16  1  0
  5 17  1  0
  5 18  1  0
  6 19  1  0
  6 20  1  0
  7 21  1  0
M  END
>  <Energy>  (11) 
5.2294181089025065

>  <Real charge>  (11) 
0

>  <Mult>  (11) 
1

$$$$
mol_1100 263
     RDKit          3D

 21 20  0  0  0  0  0  0  0  0999 V2000
    2.1150   -1.0575    0.4026 C   0  0  0  0  0  0  0  0  0  0  0  0
    1.0959   -0.0575    0.9295 C   0  0  0  0  0  0  0  0  0  0  0  0
    0.2714    0.6365   -0.1735 C   0  0  0  0  0  0  0  0  0  0  0  0
   -0.5007   -0.3413   -1.0867 C   0  0  0  0  0  0  0  0  0  0  0  0
   -1.5406   -1.1996   -0.3802 C   0  0  0  0  0  0  0  0  0  0  0  0
   -0.6361    1.7000    0.4686 C   0  0  0  0  0  0  0  0  0  0  0  0
   -1.3332    2.4500   -0.5166 O   0  0  0  0  0  0  0  0  0  0  0  0
    2.7654   -0.5980   -0.3482 H   0  0  0  0  0  0  0  0  0  0  0  0
    2.7457   -1.4163    1.2224 H   0  0  0  0  0  0  0  0  0  0  0  0
    1.6293   -1.9302   -0.0434 H   0  0  0  0  0  0  0  0  0  0  0  0
    1.6390    0.7083    1.4980 H   0  0  0  0  0  0  0  0  0  0  0  0
    0.4345   -0.5592    1.6454 H   0  0  0  0  0  0  0  0  0  0  0  0
    0.9720    1.1697   -0.8317 H   0  0  0  0  0  0  0  0  0  0  0  0
   -0.9976    0.2214   -1.8862 H   0  0  0  0  0  0  0  0  0  0  0  0
    0.2090   -1.0015   -1.5988 H   0  0  0  0  0  0  0  0  0  0  0  0
   -2.0330   -1.8571   -1.1044 H   0  0  0  0  0  0  0  0  0  0  0  0
   -1.0862   -1.8347    0.3853 H   0  0  0  0  0  0  0  0  0  0  0  0
   -2.3160   -0.5878    0.0894 H   0  0  0  0  0  0  0  0  0  0  0  0
   -1.3638    1.2604    1.1585 H   0  0  0  0  0  0  0  0  0  0  0  0
   -0.0312    2.4097    1.0431 H   0  0  0  0  0  0  0  0  0  0  0  0
   -2.0389    1.8847   -0.8732 H   0  0  0  0  0  0  0  0  0  0  0  0
  1  2  1  0
  2  3  1  0
  3  4  1  0
  4  5  1  0
  3  6  1  0
  6  7  1  0
  1  8  1  0
  1  9  1  0
  1 10  1  0
  2 11  1  0
  2 12  1  0
  3 13  1  0
  4 14  1  0
  4 15  1  0
  5 16  1  0
  5 17  1  0
  5 18  1  0
  6 19  1  0
  6 20  1  0
  7 21  1  0
M  END
>  <Energy>  (12) 
5.365423796498738

>  <Real charge>  (12) 
0

>  <Mult>  (12) 
1

$$$$
mol_1100 250
     RDKit          3D

 21 20  0  0  0  0  0  0  0  0999 V2000
    1.7401   -1.0125    0.6524 C   0  0  0  0  0  0  0  0  0  0  0  0
    0.8182   -1.0164   -0.5594 C   0  0  0  0  0  0  0  0  0  0  0  0
   -0.1234    0.2007   -0.6712 C   0  0  0  0  0  0  0  0  0  0  0  0
   -1.0795    0.3657    0.5302 C   0  0  0  0  0  0  0  0  0  0  0  0
   -1.9357   -0.8622    0.8093 C   0  0  0  0  0  0  0  0  0  0  0  0
    0.6798    1.4899   -0.9160 C   0  0  0  0  0  0  0  0  0  0  0  0
   -0.1736    2.5563   -1.3136 O   0  0  0  0  0  0  0  0  0  0  0  0
    1.1757   -1.0258    1.5890 H   0  0  0  0  0  0  0  0  0  0  0  0
    2.3977   -0.1385    0.6550 H   0  0  0  0  0  0  0  0  0  0  0  0
    2.3758   -1.9040    0.6379 H   0  0  0  0  0  0  0  0  0  0  0  0
    0.2273   -1.9396   -0.5506 H   0  0  0  0  0  0  0  0  0  0  0  0
    1.4364   -1.0705   -1.4646 H   0  0  0  0  0  0  0  0  0  0  0  0
   -0.7554    0.0399   -1.5560 H   0  0  0  0  0  0  0  0  0  0  0  0
   -0.5169    0.6270    1.4340 H   0  0  0  0  0  0  0  0  0  0  0  0
   -1.7602    1.2035    0.3380 H   0  0  0  0  0  0  0  0  0  0  0  0
   -2.6687   -0.6374    1.5910 H   0  0  0  0  0  0  0  0  0  0  0  0
   -1.3318   -1.7044    1.1590 H   0  0  0  0  0  0  0  0  0  0  0  0
   -2.4817   -1.1726   -0.0870 H   0  0  0  0  0  0  0  0  0  0  0  0
    1.4023    1.3403   -1.7249 H   0  0  0  0  0  0  0  0  0  0  0  0
    1.2330    1.8050   -0.0252 H   0  0  0  0  0  0  0  0  0  0  0  0
   -0.6596    2.8557   -0.5272 H   0  0  0  0  0  0  0  0  0  0  0  0
  1  2  1  0
  2  3  1  0
  3  4  1  0
  4  5  1  0
  3  6  1  0
  6  7  1  0
  1  8  1  0
  1  9  1  0
  1 10  1  0
  2 11  1  0
  2 12  1  0
  3 13  1  0
  4 14  1  0
  4 15  1  0
  5 16  1  0
  5 17  1  0
  5 18  1  0
  6 19  1  0
  6 20  1  0
  7 21  1  0
M  END
>  <Energy>  (13) 
5.467428119669142

>  <Real charge>  (13) 
0

>  <Mult>  (13) 
1

$$$$
mol_1100 251
     RDKit          3D

 21 20  0  0  0  0  0  0  0  0999 V2000
    2.5071   -0.5631    0.0938 C   0  0  0  0  0  0  0  0  0  0  0  0
    1.0637   -0.7976   -0.3318 C   0  0  0  0  0  0  0  0  0  0  0  0
    0.1874    0.4696   -0.2636 C   0  0  0  0  0  0  0  0  0  0  0  0
   -1.1549    0.2533   -1.0001 C   0  0  0  0  0  0  0  0  0  0  0  0
   -2.0820   -0.7769   -0.3695 C   0  0  0  0  0  0  0  0  0  0  0  0
    0.0096    0.9616    1.1817 C   0  0  0  0  0  0  0  0  0  0  0  0
   -0.7782    2.1444    1.2311 O   0  0  0  0  0  0  0  0  0  0  0  0
    2.5798   -0.3213    1.1579 H   0  0  0  0  0  0  0  0  0  0  0  0
    3.0994   -1.4676   -0.0788 H   0  0  0  0  0  0  0  0  0  0  0  0
    2.9595    0.2515   -0.4804 H   0  0  0  0  0  0  0  0  0  0  0  0
    0.6377   -1.5908    0.2934 H   0  0  0  0  0  0  0  0  0  0  0  0
    1.0730   -1.1748   -1.3618 H   0  0  0  0  0  0  0  0  0  0  0  0
    0.7005    1.2679   -0.8182 H   0  0  0  0  0  0  0  0  0  0  0  0
   -0.9477   -0.0525   -2.0335 H   0  0  0  0  0  0  0  0  0  0  0  0
   -1.6894    1.2080   -1.0746 H   0  0  0  0  0  0  0  0  0  0  0  0
   -2.3763   -0.4883    0.6434 H   0  0  0  0  0  0  0  0  0  0  0  0
   -1.6168   -1.7658   -0.3286 H   0  0  0  0  0  0  0  0  0  0  0  0
   -2.9964   -0.8668   -0.9653 H   0  0  0  0  0  0  0  0  0  0  0  0
    0.9780    1.2141    1.6229 H   0  0  0  0  0  0  0  0  0  0  0  0
   -0.4528    0.2026    1.8212 H   0  0  0  0  0  0  0  0  0  0  0  0
   -1.7012    1.8924    1.0605 H   0  0  0  0  0  0  0  0  0  0  0  0
  1  2  1  0
  2  3  1  0
  3  4  1  0
  4  5  1  0
  3  6  1  0
  6  7  1  0
  1  8  1  0
  1  9  1  0
  1 10  1  0
  2 11  1  0
  2 12  1  0
  3 13  1  0
  4 14  1  0
  4 15  1  0
  5 16  1  0
  5 17  1  0
  5 18  1  0
  6 19  1  0
  6 20  1  0
  7 21  1  0
M  END
>  <Energy>  (14) 
5.517537516694268

>  <Real charge>  (14) 
0

>  <Mult>  (14) 
1

$$$$
