mol_237 149
     RDKit          3D

 18 18  0  0  0  0  0  0  0  0999 V2000
    2.4341    0.0127   -1.3763 N   0  0  0  0  0  0  0  0  0  0  0  0
    2.5429    0.0437   -0.0344 C   0  0  0  0  0  0  0  0  0  0  0  0
    4.0401    0.2081    0.6711 S   0  0  0  0  0  0  0  0  0  0  0  0
    1.4364   -0.1068    0.7310 N   0  0  0  0  0  0  0  0  0  0  0  0
    0.0633   -0.0243    0.4228 C   0  0  0  0  0  0  0  0  0  0  0  0
   -0.4469    0.5444   -0.7463 C   0  0  0  0  0  0  0  0  0  0  0  0
   -1.8274    0.5986   -0.9655 C   0  0  0  0  0  0  0  0  0  0  0  0
   -2.7096    0.0965   -0.0119 C   0  0  0  0  0  0  0  0  0  0  0  0
   -2.2130   -0.4480    1.1688 C   0  0  0  0  0  0  0  0  0  0  0  0
   -0.8339   -0.4996    1.3880 C   0  0  0  0  0  0  0  0  0  0  0  0
    1.7098   -0.5794   -1.7624 H   0  0  0  0  0  0  0  0  0  0  0  0
    3.3101   -0.0077   -1.8856 H   0  0  0  0  0  0  0  0  0  0  0  0
    1.6566   -0.2718    1.7076 H   0  0  0  0  0  0  0  0  0  0  0  0
    0.2005    1.0034   -1.4860 H   0  0  0  0  0  0  0  0  0  0  0  0
   -2.2127    1.0498   -1.8766 H   0  0  0  0  0  0  0  0  0  0  0  0
   -3.7820    0.1428   -0.1831 H   0  0  0  0  0  0  0  0  0  0  0  0
   -2.8973   -0.8309    1.9214 H   0  0  0  0  0  0  0  0  0  0  0  0
   -0.4711   -0.9316    2.3173 H   0  0  0  0  0  0  0  0  0  0  0  0
  1  2  1  0
  2  3  2  0
  2  4  1  0
  4  5  1  0
  5  6  2  0
  6  7  1  0
  7  8  2  0
  8  9  1  0
  9 10  2  0
 10  5  1  0
  1 11  1  0
  1 12  1  0
  4 13  1  0
  6 14  1  0
  7 15  1  0
  8 16  1  0
  9 17  1  0
 10 18  1  0
M  END
>  <Energy>  (1) 
-45.94153941673849

>  <Real charge>  (1) 
0

>  <Mult>  (1) 
1

$$$$
