mol_640 46
     RDKit          3D

 16 15  0  0  0  0  0  0  0  0999 V2000
   -2.3183    0.8807   -1.1033 C   0  0  0  0  0  0  0  0  0  0  0  0
   -2.1852   -0.0268    0.1078 C   0  0  0  0  0  0  0  0  0  0  0  0
   -0.7752   -0.2946    0.4201 C   0  0  0  0  0  0  0  0  0  0  0  0
    0.3779   -0.5141    0.6761 C   0  0  0  0  0  0  0  0  0  0  0  0
    1.7874   -0.7829    0.9897 C   0  0  0  0  0  0  0  0  0  0  0  0
    2.7132   -0.0769    0.0137 C   0  0  0  0  0  0  0  0  0  0  0  0
   -1.8627    0.4267   -1.9901 H   0  0  0  0  0  0  0  0  0  0  0  0
   -1.8278    1.8450   -0.9311 H   0  0  0  0  0  0  0  0  0  0  0  0
   -3.3739    1.0703   -1.3224 H   0  0  0  0  0  0  0  0  0  0  0  0
   -2.6731    0.4423    0.9694 H   0  0  0  0  0  0  0  0  0  0  0  0
   -2.7078   -0.9702   -0.0852 H   0  0  0  0  0  0  0  0  0  0  0  0
    1.9758   -1.8616    0.9546 H   0  0  0  0  0  0  0  0  0  0  0  0
    2.0105   -0.4491    2.0092 H   0  0  0  0  0  0  0  0  0  0  0  0
    3.7586   -0.2873    0.2610 H   0  0  0  0  0  0  0  0  0  0  0  0
    2.5677    1.0084    0.0447 H   0  0  0  0  0  0  0  0  0  0  0  0
    2.5328   -0.4099   -1.0142 H   0  0  0  0  0  0  0  0  0  0  0  0
  1  2  1  0
  2  3  1  0
  3  4  3  0
  4  5  1  0
  5  6  1  0
  1  7  1  0
  1  8  1  0
  1  9  1  0
  2 10  1  0
  2 11  1  0
  5 12  1  0
  5 13  1  0
  6 14  1  0
  6 15  1  0
  6 16  1  0
M  END
>  <Energy>  (1) 
-1.3305871339362905

>  <Real charge>  (1) 
0

>  <Mult>  (1) 
1

$$$$
mol_640 68
     RDKit          3D

 16 15  0  0  0  0  0  0  0  0999 V2000
   -2.9180    0.5303   -0.2849 C   0  0  0  0  0  0  0  0  0  0  0  0
   -1.8357    0.5400    0.7812 C   0  0  0  0  0  0  0  0  0  0  0  0
   -0.5388    0.1283    0.2280 C   0  0  0  0  0  0  0  0  0  0  0  0
    0.5234   -0.2079   -0.2213 C   0  0  0  0  0  0  0  0  0  0  0  0
    1.8202   -0.6199   -0.7745 C   0  0  0  0  0  0  0  0  0  0  0  0
    2.9334   -0.4510    0.2455 C   0  0  0  0  0  0  0  0  0  0  0  0
   -3.8768    0.8392    0.1435 H   0  0  0  0  0  0  0  0  0  0  0  0
   -2.6737    1.2167   -1.1030 H   0  0  0  0  0  0  0  0  0  0  0  0
   -3.0429   -0.4704   -0.7129 H   0  0  0  0  0  0  0  0  0  0  0  0
   -1.7542    1.5459    1.2077 H   0  0  0  0  0  0  0  0  0  0  0  0
   -2.1218   -0.1341    1.5962 H   0  0  0  0  0  0  0  0  0  0  0  0
    2.0493   -0.0242   -1.6650 H   0  0  0  0  0  0  0  0  0  0  0  0
    1.7723   -1.6678   -1.0906 H   0  0  0  0  0  0  0  0  0  0  0  0
    3.0249    0.5938    0.5621 H   0  0  0  0  0  0  0  0  0  0  0  0
    3.8917   -0.7620   -0.1823 H   0  0  0  0  0  0  0  0  0  0  0  0
    2.7467   -1.0568    1.1390 H   0  0  0  0  0  0  0  0  0  0  0  0
  1  2  1  0
  2  3  1  0
  3  4  3  0
  4  5  1  0
  5  6  1  0
  1  7  1  0
  1  8  1  0
  1  9  1  0
  2 10  1  0
  2 11  1  0
  5 12  1  0
  5 13  1  0
  6 14  1  0
  6 15  1  0
  6 16  1  0
M  END
>  <Energy>  (2) 
-1.3044533639613904

>  <Real charge>  (2) 
0

>  <Mult>  (2) 
1

$$$$
