mol_114 48
     RDKit          3D

 13 13  0  0  0  0  0  0  0  0999 V2000
    0.6757   -1.0275    0.0138 C   0  0  0  0  0  0  0  0  0  0  0  0
   -0.6885   -1.3208   -0.0280 C   0  0  0  0  0  0  0  0  0  0  0  0
   -1.6266   -0.2872   -0.0495 C   0  0  0  0  0  0  0  0  0  0  0  0
   -1.2021    1.0419   -0.0292 C   0  0  0  0  0  0  0  0  0  0  0  0
    0.1604    1.3371    0.0126 C   0  0  0  0  0  0  0  0  0  0  0  0
    1.0884    0.3018    0.0337 C   0  0  0  0  0  0  0  0  0  0  0  0
    2.4103    0.6344    0.0745 O   0  0  0  0  0  0  0  0  0  0  0  0
    1.3937   -1.8409    0.0301 H   0  0  0  0  0  0  0  0  0  0  0  0
   -1.0221   -2.3551   -0.0438 H   0  0  0  0  0  0  0  0  0  0  0  0
   -2.6885   -0.5171   -0.0820 H   0  0  0  0  0  0  0  0  0  0  0  0
   -1.9310    1.8476   -0.0459 H   0  0  0  0  0  0  0  0  0  0  0  0
    0.4973    2.3694    0.0285 H   0  0  0  0  0  0  0  0  0  0  0  0
    2.9330   -0.1837    0.0851 H   0  0  0  0  0  0  0  0  0  0  0  0
  1  2  2  0
  2  3  1  0
  3  4  2  0
  4  5  1  0
  5  6  2  0
  6  7  1  0
  6  1  1  0
  1  8  1  0
  2  9  1  0
  3 10  1  0
  4 11  1  0
  5 12  1  0
  7 13  1  0
M  END
>  <Energy>  (1) 
5.7132611054427835

>  <Real charge>  (1) 
0

>  <Mult>  (1) 
1

$$$$
