mol_552 29
     RDKit          3D

 17 18  0  0  0  0  0  0  0  0999 V2000
    3.1936    0.3743   -0.2197 C   0  0  0  0  0  0  0  0  0  0  0  0
    1.7596   -0.0209   -0.0537 C   0  0  0  0  0  0  0  0  0  0  0  0
    1.4997   -1.2321    0.4584 N   0  0  0  0  0  0  0  0  0  0  0  0
    0.1932   -1.5333    0.6158 C   0  0  0  0  0  0  0  0  0  0  0  0
   -0.8547   -0.7006    0.3011 C   0  0  0  0  0  0  0  0  0  0  0  0
   -2.1558   -1.0571    0.4809 N   0  0  0  0  0  0  0  0  0  0  0  0
   -3.0656   -0.1303    0.1261 C   0  0  0  0  0  0  0  0  0  0  0  0
   -2.6879    1.0929   -0.3834 C   0  0  0  0  0  0  0  0  0  0  0  0
   -1.3910    1.4366   -0.5579 N   0  0  0  0  0  0  0  0  0  0  0  0
   -0.4552    0.5419   -0.2173 C   0  0  0  0  0  0  0  0  0  0  0  0
    0.8230    0.8787   -0.3883 N   0  0  0  0  0  0  0  0  0  0  0  0
    3.8163   -0.5053   -0.4095 H   0  0  0  0  0  0  0  0  0  0  0  0
    3.5473    0.8675    0.6903 H   0  0  0  0  0  0  0  0  0  0  0  0
    3.3080    1.0631   -1.0622 H   0  0  0  0  0  0  0  0  0  0  0  0
   -0.0049   -2.5192    1.0269 H   0  0  0  0  0  0  0  0  0  0  0  0
   -4.1072   -0.3975    0.2626 H   0  0  0  0  0  0  0  0  0  0  0  0
   -3.4183    1.8414   -0.6699 H   0  0  0  0  0  0  0  0  0  0  0  0
  1  2  1  0
  2  3  2  0
  3  4  1  0
  4  5  2  0
  5  6  1  0
  6  7  2  0
  7  8  1  0
  8  9  2  0
  9 10  1  0
 10 11  2  0
 10  5  1  0
 11  2  1  0
  1 12  1  0
  1 13  1  0
  1 14  1  0
  4 15  1  0
  7 16  1  0
  8 17  1  0
M  END
>  <Energy>  (1) 
66.71774122869198

>  <Real charge>  (1) 
0

>  <Mult>  (1) 
1

$$$$
