mol_267 152
     RDKit          3D

 65 68  0  0  0  0  0  0  0  0999 V2000
    6.4619    2.4333   -0.4539 C   0  0  0  0  0  0  0  0  0  0  0  0
    5.3107    1.8288    0.2891 C   0  0  0  0  0  0  0  0  0  0  0  0
    4.4076    2.4698    0.8078 O   0  0  0  0  0  0  0  0  0  0  0  0
    5.4298    0.4738    0.3125 O   0  0  0  0  0  0  0  0  0  0  0  0
    4.3331   -0.2080    0.9254 C   0  0  0  0  0  0  0  0  0  0  0  0
    3.1259   -0.3355   -0.0071 C   0  0  0  0  0  0  0  0  0  0  0  0
    3.1640    0.0825   -1.1683 O   0  0  0  0  0  0  0  0  0  0  0  0
    1.8613   -1.0198    0.5806 C   0  0  0  0  0  0  0  0  0  0  0  0
    2.1958   -1.7214    1.7795 O   0  0  0  0  0  0  0  0  0  0  0  0
    1.2208   -1.9881   -0.4565 C   0  0  0  0  0  0  0  0  0  0  0  0
    0.1957   -1.1491   -1.2363 C   0  0  0  0  0  0  0  0  0  0  0  0
    0.0891    0.2130   -0.5229 C   0  0  0  0  0  0  0  0  0  0  0  0
   -1.3041    0.8838   -0.5214 C   0  0  0  0  0  0  0  0  0  0  0  0
   -1.8438    1.0008   -1.9580 C   0  0  0  0  0  0  0  0  0  0  0  0
   -3.1620    1.7606   -2.0074 C   0  0  0  0  0  0  0  0  0  0  0  0
   -4.1642    1.1016   -1.0967 C   0  0  0  0  0  0  0  0  0  0  0  0
   -5.3147    0.6254   -1.6066 C   0  0  0  0  0  0  0  0  0  0  0  0
   -6.3030   -0.0904   -0.7771 C   0  0  0  0  0  0  0  0  0  0  0  0
   -7.3464   -0.5181   -1.2536 O   0  0  0  0  0  0  0  0  0  0  0  0
   -5.9814   -0.2624    0.6495 C   0  0  0  0  0  0  0  0  0  0  0  0
   -4.8379    0.2119    1.1611 C   0  0  0  0  0  0  0  0  0  0  0  0
   -3.7526    0.9577    0.3829 C   0  0  0  0  0  0  0  0  0  0  0  0
   -3.6911    2.3683    1.0161 C   0  0  0  0  0  0  0  0  0  0  0  0
   -2.3400    0.2236    0.4403 C   0  0  0  0  0  0  0  0  0  0  0  0
   -2.5417   -1.0665   -0.0043 F   0  0  0  0  0  0  0  0  0  0  0  0
   -1.7099    0.0929    1.8541 C   0  0  0  0  0  0  0  0  0  0  0  0
   -2.5458   -0.6474    2.7476 O   0  0  0  0  0  0  0  0  0  0  0  0
   -0.3627   -0.6408    1.8260 C   0  0  0  0  0  0  0  0  0  0  0  0
    0.6934   -0.0167    0.8783 C   0  0  0  0  0  0  0  0  0  0  0  0
    1.1914    1.2993    1.5030 C   0  0  0  0  0  0  0  0  0  0  0  0
    2.1109   -2.6234   -1.3927 O   0  0  0  0  0  0  0  0  0  0  0  0
    3.0595   -3.4472   -0.8819 C   0  0  0  0  0  0  0  0  0  0  0  0
    3.8605   -4.0719   -1.9807 C   0  0  0  0  0  0  0  0  0  0  0  0
    3.2503   -3.6265    0.3139 O   0  0  0  0  0  0  0  0  0  0  0  0
    6.4862    2.0482   -1.4765 H   0  0  0  0  0  0  0  0  0  0  0  0
    6.3363    3.5190   -0.4955 H   0  0  0  0  0  0  0  0  0  0  0  0
    7.3969    2.2084    0.0650 H   0  0  0  0  0  0  0  0  0  0  0  0
    4.6875   -1.2162    1.1606 H   0  0  0  0  0  0  0  0  0  0  0  0
    4.0443    0.2800    1.8622 H   0  0  0  0  0  0  0  0  0  0  0  0
    2.6219   -2.5707    1.5212 H   0  0  0  0  0  0  0  0  0  0  0  0
    0.6853   -2.7961    0.0599 H   0  0  0  0  0  0  0  0  0  0  0  0
    0.4943   -1.0086   -2.2820 H   0  0  0  0  0  0  0  0  0  0  0  0
   -0.7571   -1.6858   -1.2560 H   0  0  0  0  0  0  0  0  0  0  0  0
    0.7502    0.8978   -1.0741 H   0  0  0  0  0  0  0  0  0  0  0  0
   -1.1374    1.9087   -0.1630 H   0  0  0  0  0  0  0  0  0  0  0  0
   -1.9890    0.0053   -2.3955 H   0  0  0  0  0  0  0  0  0  0  0  0
   -1.1115    1.5194   -2.5889 H   0  0  0  0  0  0  0  0  0  0  0  0
   -3.0134    2.8048   -1.7105 H   0  0  0  0  0  0  0  0  0  0  0  0
   -3.5180    1.7860   -3.0446 H   0  0  0  0  0  0  0  0  0  0  0  0
   -5.5773    0.7183   -2.6545 H   0  0  0  0  0  0  0  0  0  0  0  0
   -6.7231   -0.7704    1.2539 H   0  0  0  0  0  0  0  0  0  0  0  0
   -4.6927    0.0905    2.2324 H   0  0  0  0  0  0  0  0  0  0  0  0
   -2.9003    2.9917    0.5888 H   0  0  0  0  0  0  0  0  0  0  0  0
   -3.5137    2.3203    2.0969 H   0  0  0  0  0  0  0  0  0  0  0  0
   -4.6358    2.9090    0.8729 H   0  0  0  0  0  0  0  0  0  0  0  0
   -1.5752    1.0822    2.3003 H   0  0  0  0  0  0  0  0  0  0  0  0
   -2.7429   -1.4978    2.3090 H   0  0  0  0  0  0  0  0  0  0  0  0
   -0.5557   -1.6880    1.5606 H   0  0  0  0  0  0  0  0  0  0  0  0
    0.0325   -0.6886    2.8503 H   0  0  0  0  0  0  0  0  0  0  0  0
    1.8614    1.8389    0.8277 H   0  0  0  0  0  0  0  0  0  0  0  0
    0.3705    1.9863    1.7290 H   0  0  0  0  0  0  0  0  0  0  0  0
    1.7300    1.1107    2.4379 H   0  0  0  0  0  0  0  0  0  0  0  0
    3.1975   -4.6056   -2.6664 H   0  0  0  0  0  0  0  0  0  0  0  0
    4.5640   -4.7911   -1.5518 H   0  0  0  0  0  0  0  0  0  0  0  0
    4.4235   -3.3005   -2.5116 H   0  0  0  0  0  0  0  0  0  0  0  0
  1  2  1  0
  2  3  2  0
  2  4  1  0
  4  5  1  0
  5  6  1  0
  6  7  2  0
  6  8  1  0
  8  9  1  0
  8 10  1  0
 10 11  1  0
 11 12  1  0
 12 13  1  0
 13 14  1  0
 14 15  1  0
 15 16  1  0
 16 17  2  0
 17 18  1  0
 18 19  2  0
 18 20  1  0
 20 21  2  0
 21 22  1  0
 22 23  1  0
 22 24  1  0
 24 25  1  0
 24 26  1  0
 26 27  1  0
 26 28  1  0
 28 29  1  0
 29 30  1  0
 10 31  1  0
 31 32  1  0
 32 33  1  0
 32 34  2  0
 22 16  1  0
 24 13  1  0
 29  8  1  0
 29 12  1  0
  1 35  1  0
  1 36  1  0
  1 37  1  0
  5 38  1  0
  5 39  1  0
  9 40  1  0
 10 41  1  0
 11 42  1  0
 11 43  1  0
 12 44  1  0
 13 45  1  0
 14 46  1  0
 14 47  1  0
 15 48  1  0
 15 49  1  0
 17 50  1  0
 20 51  1  0
 21 52  1  0
 23 53  1  0
 23 54  1  0
 23 55  1  0
 26 56  1  0
 27 57  1  0
 28 58  1  0
 28 59  1  0
 30 60  1  0
 30 61  1  0
 30 62  1  0
 33 63  1  0
 33 64  1  0
 33 65  1  0
M  END
>  <Energy>  (1) 
136.21382301238577

>  <Real charge>  (1) 
0

>  <Mult>  (1) 
1

$$$$
