mol_613 75
     RDKit          3D

 17 17  0  0  0  0  0  0  0  0999 V2000
   -2.3211   -0.9925    0.0510 C   0  0  0  0  0  0  0  0  0  0  0  0
   -1.0924   -0.1379   -0.0196 C   0  0  0  0  0  0  0  0  0  0  0  0
   -1.1921    1.2517   -0.0760 C   0  0  0  0  0  0  0  0  0  0  0  0
   -0.0253    1.9979   -0.1071 C   0  0  0  0  0  0  0  0  0  0  0  0
    1.2135    1.4618   -0.0771 N   0  0  0  0  0  0  0  0  0  0  0  0
    1.3021    0.1133   -0.0079 C   0  0  0  0  0  0  0  0  0  0  0  0
    2.6766   -0.4838    0.0351 C   0  0  0  0  0  0  0  0  0  0  0  0
    0.1804   -0.7127    0.0276 C   0  0  0  0  0  0  0  0  0  0  0  0
   -3.1568   -0.5197   -0.4756 H   0  0  0  0  0  0  0  0  0  0  0  0
   -2.1478   -1.9649   -0.4219 H   0  0  0  0  0  0  0  0  0  0  0  0
   -2.6065   -1.1525    1.0953 H   0  0  0  0  0  0  0  0  0  0  0  0
   -2.1553    1.7499   -0.0960 H   0  0  0  0  0  0  0  0  0  0  0  0
   -0.0573    3.0825   -0.1560 H   0  0  0  0  0  0  0  0  0  0  0  0
    2.8145   -1.0485    0.9623 H   0  0  0  0  0  0  0  0  0  0  0  0
    3.4426    0.2973   -0.0056 H   0  0  0  0  0  0  0  0  0  0  0  0
    2.8256   -1.1517   -0.8190 H   0  0  0  0  0  0  0  0  0  0  0  0
    0.2993   -1.7902    0.0906 H   0  0  0  0  0  0  0  0  0  0  0  0
  1  2  1  0
  2  3  2  0
  3  4  1  0
  4  5  2  0
  5  6  1  0
  6  7  1  0
  6  8  2  0
  8  2  1  0
  1  9  1  0
  1 10  1  0
  1 11  1  0
  3 12  1  0
  4 13  1  0
  7 14  1  0
  7 15  1  0
  7 16  1  0
  8 17  1  0
M  END
>  <Energy>  (1) 
18.57267289965462

>  <Real charge>  (1) 
0

>  <Mult>  (1) 
1

$$$$
