mol_574 75
     RDKit          3D

 16 16  0  0  0  0  0  0  0  0999 V2000
    2.6917   -0.2183   -0.2040 C   0  0  0  0  0  0  0  0  0  0  0  0
    1.7211    0.8116   -0.0608 O   0  0  0  0  0  0  0  0  0  0  0  0
    0.4107    0.4241    0.0023 C   0  0  0  0  0  0  0  0  0  0  0  0
   -0.5011    1.4755    0.1430 C   0  0  0  0  0  0  0  0  0  0  0  0
   -1.8726    1.2264    0.2205 C   0  0  0  0  0  0  0  0  0  0  0  0
   -2.3417   -0.0835    0.1575 C   0  0  0  0  0  0  0  0  0  0  0  0
   -1.4345   -1.1322    0.0174 C   0  0  0  0  0  0  0  0  0  0  0  0
   -2.0150   -2.7521   -0.0606 Cl  0  0  0  0  0  0  0  0  0  0  0  0
   -0.0615   -0.8870   -0.0606 C   0  0  0  0  0  0  0  0  0  0  0  0
    2.6770   -0.8965    0.6556 H   0  0  0  0  0  0  0  0  0  0  0  0
    3.6780    0.2545   -0.2383 H   0  0  0  0  0  0  0  0  0  0  0  0
    2.5514   -0.7649   -1.1424 H   0  0  0  0  0  0  0  0  0  0  0  0
   -0.1366    2.4994    0.1924 H   0  0  0  0  0  0  0  0  0  0  0  0
   -2.5699    2.0529    0.3297 H   0  0  0  0  0  0  0  0  0  0  0  0
   -3.4087   -0.2800    0.2176 H   0  0  0  0  0  0  0  0  0  0  0  0
    0.6116   -1.7300   -0.1693 H   0  0  0  0  0  0  0  0  0  0  0  0
  1  2  1  0
  2  3  1  0
  3  4  2  0
  4  5  1  0
  5  6  2  0
  6  7  1  0
  7  8  1  0
  7  9  2  0
  9  3  1  0
  1 10  1  0
  1 11  1  0
  1 12  1  0
  4 13  1  0
  5 14  1  0
  6 15  1  0
  9 16  1  0
M  END
>  <Energy>  (1) 
15.764989688634541

>  <Real charge>  (1) 
0

>  <Mult>  (1) 
1

$$$$
mol_574 116
     RDKit          3D

 16 16  0  0  0  0  0  0  0  0999 V2000
   -2.7172   -0.1846    0.1344 C   0  0  0  0  0  0  0  0  0  0  0  0
   -1.5763   -1.0320    0.0815 O   0  0  0  0  0  0  0  0  0  0  0  0
   -0.3514   -0.4296    0.1696 C   0  0  0  0  0  0  0  0  0  0  0  0
   -0.1192    0.9409    0.3066 C   0  0  0  0  0  0  0  0  0  0  0  0
    1.1892    1.4289    0.3858 C   0  0  0  0  0  0  0  0  0  0  0  0
    2.2696    0.5493    0.3283 C   0  0  0  0  0  0  0  0  0  0  0  0
    2.0369   -0.8168    0.1917 C   0  0  0  0  0  0  0  0  0  0  0  0
    3.3676   -1.9058    0.1204 Cl  0  0  0  0  0  0  0  0  0  0  0  0
    0.7347   -1.3070    0.1125 C   0  0  0  0  0  0  0  0  0  0  0  0
   -2.7273    0.5165   -0.7067 H   0  0  0  0  0  0  0  0  0  0  0  0
   -2.7719    0.3442    1.0916 H   0  0  0  0  0  0  0  0  0  0  0  0
   -3.6069   -0.8164    0.0518 H   0  0  0  0  0  0  0  0  0  0  0  0
   -0.9334    1.6568    0.3550 H   0  0  0  0  0  0  0  0  0  0  0  0
    1.3646    2.4967    0.4924 H   0  0  0  0  0  0  0  0  0  0  0  0
    3.2844    0.9328    0.3902 H   0  0  0  0  0  0  0  0  0  0  0  0
    0.5568   -2.3737    0.0059 H   0  0  0  0  0  0  0  0  0  0  0  0
  1  2  1  0
  2  3  1  0
  3  4  2  0
  4  5  1  0
  5  6  2  0
  6  7  1  0
  7  8  1  0
  7  9  2  0
  9  3  1  0
  1 10  1  0
  1 11  1  0
  1 12  1  0
  4 13  1  0
  5 14  1  0
  6 15  1  0
  9 16  1  0
M  END
>  <Energy>  (2) 
15.884195682249175

>  <Real charge>  (2) 
0

>  <Mult>  (2) 
1

$$$$
