mol_171 9
     RDKit          3D

 12 12  0  0  0  0  0  0  0  0999 V2000
    2.6967   -1.5814    0.1410 Cl  0  0  0  0  0  0  0  0  0  0  0  0
    1.2047   -0.7087    0.0630 C   0  0  0  0  0  0  0  0  0  0  0  0
    0.0301   -1.4649    0.0300 C   0  0  0  0  0  0  0  0  0  0  0  0
   -1.2079   -0.8292   -0.0329 C   0  0  0  0  0  0  0  0  0  0  0  0
   -1.2779    0.5661   -0.0632 C   0  0  0  0  0  0  0  0  0  0  0  0
   -2.8566    1.2700   -0.1414 Cl  0  0  0  0  0  0  0  0  0  0  0  0
   -0.1040    1.3376   -0.0305 C   0  0  0  0  0  0  0  0  0  0  0  0
   -0.2071    3.0732   -0.0689 Cl  0  0  0  0  0  0  0  0  0  0  0  0
    1.1475    0.6950    0.0331 C   0  0  0  0  0  0  0  0  0  0  0  0
    2.6180    1.6226    0.0748 Cl  0  0  0  0  0  0  0  0  0  0  0  0
    0.0732   -2.5523    0.0532 H   0  0  0  0  0  0  0  0  0  0  0  0
   -2.1167   -1.4279   -0.0582 H   0  0  0  0  0  0  0  0  0  0  0  0
  1  2  1  0
  2  3  2  0
  3  4  1  0
  4  5  2  0
  5  6  1  0
  5  7  1  0
  7  8  1  0
  7  9  2  0
  9 10  1  0
  9  2  1  0
  3 11  1  0
  4 12  1  0
M  END
>  <Energy>  (1) 
30.4006774838103

>  <Real charge>  (1) 
0

>  <Mult>  (1) 
1

$$$$
