mol_1072 1
     RDKit          3D

  8  7  0  0  0  0  0  0  0  0999 V2000
   -1.6763   -1.4315    0.2685 Cl  0  0  0  0  0  0  0  0  0  0  0  0
   -0.7648    0.0403   -0.2240 C   0  0  0  0  0  0  0  0  0  0  0  0
   -1.5958    1.4567    0.5127 Cl  0  0  0  0  0  0  0  0  0  0  0  0
    0.7471   -0.0298    0.1059 C   0  0  0  0  0  0  0  0  0  0  0  0
    1.0774   -0.1877    1.8654 Cl  0  0  0  0  0  0  0  0  0  0  0  0
    1.5212   -1.4307   -0.7334 Cl  0  0  0  0  0  0  0  0  0  0  0  0
    1.6015    1.4471   -0.4901 Cl  0  0  0  0  0  0  0  0  0  0  0  0
   -0.9103    0.1357   -1.3049 H   0  0  0  0  0  0  0  0  0  0  0  0
  1  2  1  0
  2  3  1  0
  2  4  1  0
  4  5  1  0
  4  6  1  0
  4  7  1  0
  2  8  1  0
M  END
>  <Energy>  (1) 
41.49256920024432

>  <Real charge>  (1) 
0

>  <Mult>  (1) 
1

$$$$
