mol_298 10
     RDKit          3D

 22 23  0  0  0  0  0  0  0  0999 V2000
    3.2374    2.2693    1.9411 Cl  0  0  0  0  0  0  0  0  0  0  0  0
    2.6716    1.1581    0.7417 C   0  0  0  0  0  0  0  0  0  0  0  0
    1.2897    0.9612    0.6653 C   0  0  0  0  0  0  0  0  0  0  0  0
    0.7340    0.0800   -0.2759 C   0  0  0  0  0  0  0  0  0  0  0  0
    1.6047   -0.6140   -1.1452 C   0  0  0  0  0  0  0  0  0  0  0  0
    0.9236   -1.7208   -2.3060 Cl  0  0  0  0  0  0  0  0  0  0  0  0
    2.9998   -0.4185   -1.0715 C   0  0  0  0  0  0  0  0  0  0  0  0
    4.0574   -1.2847   -2.1505 Cl  0  0  0  0  0  0  0  0  0  0  0  0
    3.5353    0.4729   -0.1236 C   0  0  0  0  0  0  0  0  0  0  0  0
    5.2517    0.7273   -0.0129 Cl  0  0  0  0  0  0  0  0  0  0  0  0
   -0.7337   -0.0793   -0.3191 C   0  0  0  0  0  0  0  0  0  0  0  0
   -1.3303   -1.0592    0.4901 C   0  0  0  0  0  0  0  0  0  0  0  0
   -2.7137   -1.2598    0.4796 C   0  0  0  0  0  0  0  0  0  0  0  0
   -3.3318   -2.4973    1.5189 Cl  0  0  0  0  0  0  0  0  0  0  0  0
   -3.5380   -0.4795   -0.3424 C   0  0  0  0  0  0  0  0  0  0  0  0
   -5.2570   -0.7402   -0.3411 Cl  0  0  0  0  0  0  0  0  0  0  0  0
   -2.9613    0.5115   -1.1582 C   0  0  0  0  0  0  0  0  0  0  0  0
   -3.9699    1.4962   -2.1811 Cl  0  0  0  0  0  0  0  0  0  0  0  0
   -1.5648    0.7103   -1.1445 C   0  0  0  0  0  0  0  0  0  0  0  0
   -0.8333    1.9388   -2.1405 Cl  0  0  0  0  0  0  0  0  0  0  0  0
    0.6360    1.5095    1.3441 H   0  0  0  0  0  0  0  0  0  0  0  0
   -0.7074   -1.6821    1.1327 H   0  0  0  0  0  0  0  0  0  0  0  0
  1  2  1  0
  2  3  2  0
  3  4  1  0
  4  5  2  0
  5  6  1  0
  5  7  1  0
  7  8  1  0
  7  9  2  0
  9 10  1  0
  4 11  1  0
 11 12  2  0
 12 13  1  0
 13 14  1  0
 13 15  2  0
 15 16  1  0
 15 17  1  0
 17 18  1  0
 17 19  2  0
 19 20  1  0
  9  2  1  0
 19 11  1  0
  3 21  1  0
 12 22  1  0
M  END
>  <Energy>  (1) 
68.77173739391975

>  <Real charge>  (1) 
0

>  <Mult>  (1) 
1

$$$$
