mol_556 1503
     RDKit          3D

119126  0  0  0  0  0  0  0  0999 V2000
   11.1153   -3.0911   -2.1746 C   0  0  0  0  0  0  0  0  0  0  0  0
   10.8787   -1.5854   -2.1908 C   0  0  0  0  0  0  0  0  0  0  0  0
    9.5190   -1.3547   -1.8030 O   0  0  0  0  0  0  0  0  0  0  0  0
    9.1951    0.0313   -1.7167 C   0  0  0  0  0  0  0  0  0  0  0  0
    9.3548    0.6888   -3.0829 C   0  0  0  0  0  0  0  0  0  0  0  0
   10.7724    0.4969   -3.5932 C   0  0  0  0  0  0  0  0  0  0  0  0
   10.8831    1.0203   -4.9168 O   0  0  0  0  0  0  0  0  0  0  0  0
   11.1595   -0.9876   -3.5787 C   0  0  0  0  0  0  0  0  0  0  0  0
   12.5341   -1.1113   -3.9582 O   0  0  0  0  0  0  0  0  0  0  0  0
    7.8344    0.1840   -1.3263 O   0  0  0  0  0  0  0  0  0  0  0  0
    7.5718   -0.1313    0.0506 C   0  0  0  0  0  0  0  0  0  0  0  0
    6.9208   -1.5216    0.1611 C   0  0  0  0  0  0  0  0  0  0  0  0
    7.8650   -2.5594   -0.1210 O   0  0  0  0  0  0  0  0  0  0  0  0
    6.3978   -1.7650    1.5691 C   0  0  0  0  0  0  0  0  0  0  0  0
    5.5019   -0.6324    2.0451 C   0  0  0  0  0  0  0  0  0  0  0  0
    6.1614    0.6276    1.9340 O   0  0  0  0  0  0  0  0  0  0  0  0
    6.5958    0.9253    0.6000 C   0  0  0  0  0  0  0  0  0  0  0  0
    7.2442    2.3075    0.6406 C   0  0  0  0  0  0  0  0  0  0  0  0
    4.2924   -0.6194    1.2976 O   0  0  0  0  0  0  0  0  0  0  0  0
    3.1110   -0.3950    2.0821 C   0  0  0  0  0  0  0  0  0  0  0  0
    3.0953    0.9844    2.7739 C   0  0  0  0  0  0  0  0  0  0  0  0
    3.3771    2.0204    1.8288 O   0  0  0  0  0  0  0  0  0  0  0  0
    1.7435    1.2625    3.4137 C   0  0  0  0  0  0  0  0  0  0  0  0
    0.6113    1.0432    2.4149 C   0  0  0  0  0  0  0  0  0  0  0  0
   -0.6138    1.2528    3.1200 O   0  0  0  0  0  0  0  0  0  0  0  0
   -1.7726    1.1511    2.2871 C   0  0  0  0  0  0  0  0  0  0  0  0
   -2.4339   -0.2094    2.5024 C   0  0  0  0  0  0  0  0  0  0  0  0
   -3.7937   -0.3182    1.8096 C   0  0  0  0  0  0  0  0  0  0  0  0
   -4.7868    0.8129    2.1957 C   0  0  0  0  0  0  0  0  0  0  0  0
   -5.1624    0.6520    3.6951 C   0  0  0  0  0  0  0  0  0  0  0  0
   -4.0961    2.2047    1.9965 C   0  0  0  0  0  0  0  0  0  0  0  0
   -3.9526    2.5965    0.5145 C   0  0  0  0  0  0  0  0  0  0  0  0
   -5.2862    2.5636   -0.2150 C   0  0  0  0  0  0  0  0  0  0  0  0
   -5.9138    1.1657   -0.1443 C   0  0  0  0  0  0  0  0  0  0  0  0
   -6.1231    0.7512    1.3479 C   0  0  0  0  0  0  0  0  0  0  0  0
   -6.8877   -0.6017    1.4787 C   0  0  0  0  0  0  0  0  0  0  0  0
   -8.1483   -0.7313    0.5969 C   0  0  0  0  0  0  0  0  0  0  0  0
   -9.1872    0.0654    1.1630 O   0  0  0  0  0  0  0  0  0  0  0  0
   -7.8505   -0.3517   -0.8699 C   0  0  0  0  0  0  0  0  0  0  0  0
   -6.9085   -1.4316   -1.4771 C   0  0  0  0  0  0  0  0  0  0  0  0
   -9.0921   -0.1451   -1.7898 C   0  0  0  0  0  0  0  0  0  0  0  0
   -8.5360    0.7359   -2.9418 C   0  0  0  0  0  0  0  0  0  0  0  0
   -7.2613    1.4218   -2.3990 C   0  0  0  0  0  0  0  0  0  0  0  0
   -7.2507    1.0848   -0.9067 C   0  0  0  0  0  0  0  0  0  0  0  0
   -8.1742    1.9990   -0.2714 O   0  0  0  0  0  0  0  0  0  0  0  0
   -9.8500   -1.3734   -2.2004 C   0  0  0  0  0  0  0  0  0  0  0  0
  -10.8092   -1.9581   -1.4814 C   0  0  0  0  0  0  0  0  0  0  0  0
  -11.2823   -3.1095   -2.2448 C   0  0  0  0  0  0  0  0  0  0  0  0
  -12.1528   -3.8790   -1.8834 O   0  0  0  0  0  0  0  0  0  0  0  0
  -10.5914   -3.1806   -3.4140 O   0  0  0  0  0  0  0  0  0  0  0  0
   -9.6677   -2.0944   -3.4800 C   0  0  0  0  0  0  0  0  0  0  0  0
   -2.7193    2.2870    2.6839 C   0  0  0  0  0  0  0  0  0  0  0  0
    0.6747   -0.2855    1.9007 O   0  0  0  0  0  0  0  0  0  0  0  0
    1.8786   -0.5209    1.1637 C   0  0  0  0  0  0  0  0  0  0  0  0
    1.7717   -1.9180    0.5582 C   0  0  0  0  0  0  0  0  0  0  0  0
   10.8907   -3.5003   -1.1835 H   0  0  0  0  0  0  0  0  0  0  0  0
   12.1507   -3.3393   -2.4260 H   0  0  0  0  0  0  0  0  0  0  0  0
   10.4496   -3.5991   -2.8811 H   0  0  0  0  0  0  0  0  0  0  0  0
   11.5434   -1.1358   -1.4415 H   0  0  0  0  0  0  0  0  0  0  0  0
    9.8468    0.5262   -0.9847 H   0  0  0  0  0  0  0  0  0  0  0  0
    8.6434    0.2528   -3.7976 H   0  0  0  0  0  0  0  0  0  0  0  0
    9.0985    1.7541   -3.0360 H   0  0  0  0  0  0  0  0  0  0  0  0
   11.4748    1.0691   -2.9749 H   0  0  0  0  0  0  0  0  0  0  0  0
   11.6708    0.6015   -5.3165 H   0  0  0  0  0  0  0  0  0  0  0  0
   10.5727   -1.5119   -4.3432 H   0  0  0  0  0  0  0  0  0  0  0  0
   13.0887   -0.7369   -3.2514 H   0  0  0  0  0  0  0  0  0  0  0  0
    8.5003   -0.1201    0.6375 H   0  0  0  0  0  0  0  0  0  0  0  0
    6.1130   -1.6194   -0.5737 H   0  0  0  0  0  0  0  0  0  0  0  0
    8.3245   -2.2999   -0.9483 H   0  0  0  0  0  0  0  0  0  0  0  0
    7.2532   -1.8641    2.2504 H   0  0  0  0  0  0  0  0  0  0  0  0
    5.8610   -2.7210    1.5976 H   0  0  0  0  0  0  0  0  0  0  0  0
    5.2938   -0.8017    3.1083 H   0  0  0  0  0  0  0  0  0  0  0  0
    5.7193    0.9994   -0.0571 H   0  0  0  0  0  0  0  0  0  0  0  0
    8.1204    2.3078    1.2983 H   0  0  0  0  0  0  0  0  0  0  0  0
    6.5443    3.0442    1.0501 H   0  0  0  0  0  0  0  0  0  0  0  0
    7.5526    2.6407   -0.3547 H   0  0  0  0  0  0  0  0  0  0  0  0
    3.0446   -1.1724    2.8559 H   0  0  0  0  0  0  0  0  0  0  0  0
    3.8739    1.0423    3.5420 H   0  0  0  0  0  0  0  0  0  0  0  0
    4.2845    1.8433    1.5140 H   0  0  0  0  0  0  0  0  0  0  0  0
    1.6057    0.5921    4.2719 H   0  0  0  0  0  0  0  0  0  0  0  0
    1.6963    2.2884    3.7981 H   0  0  0  0  0  0  0  0  0  0  0  0
    0.6755    1.7693    1.5939 H   0  0  0  0  0  0  0  0  0  0  0  0
   -1.4969    1.2668    1.2318 H   0  0  0  0  0  0  0  0  0  0  0  0
   -2.5334   -0.4104    3.5762 H   0  0  0  0  0  0  0  0  0  0  0  0
   -1.7796   -1.0051    2.1277 H   0  0  0  0  0  0  0  0  0  0  0  0
   -4.2139   -1.2989    2.0601 H   0  0  0  0  0  0  0  0  0  0  0  0
   -3.6249   -0.3256    0.7272 H   0  0  0  0  0  0  0  0  0  0  0  0
   -5.5455   -0.3508    3.9098 H   0  0  0  0  0  0  0  0  0  0  0  0
   -5.9321    1.3759    3.9857 H   0  0  0  0  0  0  0  0  0  0  0  0
   -4.3122    0.8039    4.3652 H   0  0  0  0  0  0  0  0  0  0  0  0
   -4.7344    2.9689    2.4634 H   0  0  0  0  0  0  0  0  0  0  0  0
   -3.2494    1.9356   -0.0040 H   0  0  0  0  0  0  0  0  0  0  0  0
   -3.5369    3.6092    0.4421 H   0  0  0  0  0  0  0  0  0  0  0  0
   -5.1248    2.8526   -1.2598 H   0  0  0  0  0  0  0  0  0  0  0  0
   -5.9498    3.3163    0.2261 H   0  0  0  0  0  0  0  0  0  0  0  0
   -5.2038    0.4769   -0.6141 H   0  0  0  0  0  0  0  0  0  0  0  0
   -6.7880    1.5099    1.7889 H   0  0  0  0  0  0  0  0  0  0  0  0
   -7.1970   -0.7356    2.5214 H   0  0  0  0  0  0  0  0  0  0  0  0
   -6.2162   -1.4313    1.2398 H   0  0  0  0  0  0  0  0  0  0  0  0
   -8.5039   -1.7665    0.6523 H   0  0  0  0  0  0  0  0  0  0  0  0
   -9.0031    0.9933    0.8995 H   0  0  0  0  0  0  0  0  0  0  0  0
   -6.6869   -1.2528   -2.5336 H   0  0  0  0  0  0  0  0  0  0  0  0
   -5.9471   -1.4982   -0.9618 H   0  0  0  0  0  0  0  0  0  0  0  0
   -7.3649   -2.4257   -1.4063 H   0  0  0  0  0  0  0  0  0  0  0  0
   -9.8226    0.4859   -1.2617 H   0  0  0  0  0  0  0  0  0  0  0  0
   -8.2791    0.1622   -3.8381 H   0  0  0  0  0  0  0  0  0  0  0  0
   -9.2814    1.4827   -3.2391 H   0  0  0  0  0  0  0  0  0  0  0  0
   -7.3001    2.4986   -2.5952 H   0  0  0  0  0  0  0  0  0  0  0  0
   -6.3775    1.0200   -2.9069 H   0  0  0  0  0  0  0  0  0  0  0  0
   -7.9194    2.9083   -0.5128 H   0  0  0  0  0  0  0  0  0  0  0  0
  -11.1944   -1.6858   -0.5138 H   0  0  0  0  0  0  0  0  0  0  0  0
   -8.6585   -2.4979   -3.5968 H   0  0  0  0  0  0  0  0  0  0  0  0
   -9.9213   -1.4762   -4.3461 H   0  0  0  0  0  0  0  0  0  0  0  0
   -2.8416    2.2985    3.7741 H   0  0  0  0  0  0  0  0  0  0  0  0
   -2.2399    3.2485    2.4565 H   0  0  0  0  0  0  0  0  0  0  0  0
    1.9420    0.1939    0.3327 H   0  0  0  0  0  0  0  0  0  0  0  0
    0.8690   -1.9964   -0.0577 H   0  0  0  0  0  0  0  0  0  0  0  0
    1.6827   -2.6782    1.3421 H   0  0  0  0  0  0  0  0  0  0  0  0
    2.6376   -2.1568   -0.0662 H   0  0  0  0  0  0  0  0  0  0  0  0
  1  2  1  0
  2  3  1  0
  3  4  1  0
  4  5  1  0
  5  6  1  0
  6  7  1  0
  6  8  1  0
  8  9  1  0
  4 10  1  0
 10 11  1  0
 11 12  1  0
 12 13  1  0
 12 14  1  0
 14 15  1  0
 15 16  1  0
 16 17  1  0
 17 18  1  0
 15 19  1  0
 19 20  1  0
 20 21  1  0
 21 22  1  0
 21 23  1  0
 23 24  1  0
 24 25  1  0
 25 26  1  0
 26 27  1  0
 27 28  1  0
 28 29  1  0
 29 30  1  0
 29 31  1  0
 31 32  1  0
 32 33  1  0
 33 34  1  0
 34 35  1  0
 35 36  1  0
 36 37  1  0
 37 38  1  0
 37 39  1  0
 39 40  1  0
 39 41  1  0
 41 42  1  0
 42 43  1  0
 43 44  1  0
 44 45  1  0
 41 46  1  0
 46 47  2  0
 47 48  1  0
 48 49  2  0
 48 50  1  0
 50 51  1  0
 31 52  1  0
 24 53  1  0
 53 54  1  0
 54 55  1  0
  8  2  1  0
 17 11  1  0
 35 29  1  0
 44 34  1  0
 44 39  1  0
 51 46  1  0
 52 26  1  0
 54 20  1  0
  1 56  1  0
  1 57  1  0
  1 58  1  0
  2 59  1  0
  4 60  1  0
  5 61  1  0
  5 62  1  0
  6 63  1  0
  7 64  1  0
  8 65  1  0
  9 66  1  0
 11 67  1  0
 12 68  1  0
 13 69  1  0
 14 70  1  0
 14 71  1  0
 15 72  1  0
 17 73  1  0
 18 74  1  0
 18 75  1  0
 18 76  1  0
 20 77  1  0
 21 78  1  0
 22 79  1  0
 23 80  1  0
 23 81  1  0
 24 82  1  0
 26 83  1  0
 27 84  1  0
 27 85  1  0
 28 86  1  0
 28 87  1  0
 30 88  1  0
 30 89  1  0
 30 90  1  0
 31 91  1  0
 32 92  1  0
 32 93  1  0
 33 94  1  0
 33 95  1  0
 34 96  1  0
 35 97  1  0
 36 98  1  0
 36 99  1  0
 37100  1  0
 38101  1  0
 40102  1  0
 40103  1  0
 40104  1  0
 41105  1  0
 42106  1  0
 42107  1  0
 43108  1  0
 43109  1  0
 45110  1  0
 47111  1  0
 51112  1  0
 51113  1  0
 52114  1  0
 52115  1  0
 54116  1  0
 55117  1  0
 55118  1  0
 55119  1  0
M  END
>  <Energy>  (1) 
154.27671593379873

>  <Real charge>  (1) 
0

>  <Mult>  (1) 
1

$$$$
mol_556 1463
     RDKit          3D

119126  0  0  0  0  0  0  0  0999 V2000
   11.8966    1.6895    2.0959 C   0  0  0  0  0  0  0  0  0  0  0  0
   10.9678    0.6352    1.5008 C   0  0  0  0  0  0  0  0  0  0  0  0
   11.2044    0.6067    0.0865 O   0  0  0  0  0  0  0  0  0  0  0  0
   10.3810   -0.3285   -0.6104 C   0  0  0  0  0  0  0  0  0  0  0  0
   10.6183   -1.7477   -0.0981 C   0  0  0  0  0  0  0  0  0  0  0  0
   10.4026   -1.8273    1.4080 C   0  0  0  0  0  0  0  0  0  0  0  0
    9.0126   -1.6921    1.7488 O   0  0  0  0  0  0  0  0  0  0  0  0
   11.2060   -0.7428    2.1384 C   0  0  0  0  0  0  0  0  0  0  0  0
   10.8351   -0.7319    3.5195 O   0  0  0  0  0  0  0  0  0  0  0  0
    8.9978   -0.0104   -0.4480 O   0  0  0  0  0  0  0  0  0  0  0  0
    8.5798    1.0915   -1.2825 C   0  0  0  0  0  0  0  0  0  0  0  0
    7.8978    0.5390   -2.5482 C   0  0  0  0  0  0  0  0  0  0  0  0
    8.7839   -0.3192   -3.2695 O   0  0  0  0  0  0  0  0  0  0  0  0
    6.6254   -0.2113   -2.1800 C   0  0  0  0  0  0  0  0  0  0  0  0
    5.7004    0.6898   -1.3689 C   0  0  0  0  0  0  0  0  0  0  0  0
    6.3598    1.1827   -0.2093 O   0  0  0  0  0  0  0  0  0  0  0  0
    7.5717    1.9163   -0.4578 C   0  0  0  0  0  0  0  0  0  0  0  0
    7.2679    3.2863   -1.0588 C   0  0  0  0  0  0  0  0  0  0  0  0
    4.5784   -0.1028   -0.9856 O   0  0  0  0  0  0  0  0  0  0  0  0
    3.4626    0.6507   -0.4824 C   0  0  0  0  0  0  0  0  0  0  0  0
    3.4427    0.6212    1.0595 C   0  0  0  0  0  0  0  0  0  0  0  0
    4.4797    1.4339    1.6130 O   0  0  0  0  0  0  0  0  0  0  0  0
    2.1196    1.1383    1.6057 C   0  0  0  0  0  0  0  0  0  0  0  0
    0.9463    0.4184    0.9594 C   0  0  0  0  0  0  0  0  0  0  0  0
   -0.2494    0.9870    1.4901 O   0  0  0  0  0  0  0  0  0  0  0  0
   -1.4411    0.3568    1.0161 C   0  0  0  0  0  0  0  0  0  0  0  0
   -2.0700    1.2132   -0.0842 C   0  0  0  0  0  0  0  0  0  0  0  0
   -3.4605    0.7192   -0.4914 C   0  0  0  0  0  0  0  0  0  0  0  0
   -4.4469    0.5769    0.7035 C   0  0  0  0  0  0  0  0  0  0  0  0
   -4.7569    1.9950    1.2491 C   0  0  0  0  0  0  0  0  0  0  0  0
   -3.7564   -0.3251    1.7740 C   0  0  0  0  0  0  0  0  0  0  0  0
   -4.6631   -0.5910    2.9782 C   0  0  0  0  0  0  0  0  0  0  0  0
   -5.9535   -1.2774    2.5390 C   0  0  0  0  0  0  0  0  0  0  0  0
   -6.7014   -0.4955    1.4406 C   0  0  0  0  0  0  0  0  0  0  0  0
   -5.7693   -0.1526    0.2451 C   0  0  0  0  0  0  0  0  0  0  0  0
   -6.5634    0.6171   -0.8325 C   0  0  0  0  0  0  0  0  0  0  0  0
   -7.7786   -0.1751   -1.3298 C   0  0  0  0  0  0  0  0  0  0  0  0
   -7.2949   -1.3248   -2.0208 O   0  0  0  0  0  0  0  0  0  0  0  0
   -8.7596   -0.5444   -0.1768 C   0  0  0  0  0  0  0  0  0  0  0  0
   -9.4981    0.7394    0.2687 C   0  0  0  0  0  0  0  0  0  0  0  0
   -9.7880   -1.6649   -0.5496 C   0  0  0  0  0  0  0  0  0  0  0  0
   -9.0256   -2.9916   -0.3411 C   0  0  0  0  0  0  0  0  0  0  0  0
   -7.8356   -2.6782    0.5740 C   0  0  0  0  0  0  0  0  0  0  0  0
   -8.0111   -1.2161    1.0149 C   0  0  0  0  0  0  0  0  0  0  0  0
   -8.8879   -1.2687    2.1588 O   0  0  0  0  0  0  0  0  0  0  0  0
  -10.5209   -1.5233   -1.8564 C   0  0  0  0  0  0  0  0  0  0  0  0
  -10.2512   -2.0894   -3.0329 C   0  0  0  0  0  0  0  0  0  0  0  0
  -11.2854   -1.6619   -3.9706 C   0  0  0  0  0  0  0  0  0  0  0  0
  -11.3319   -1.9725   -5.1464 O   0  0  0  0  0  0  0  0  0  0  0  0
  -12.1724   -0.8633   -3.3209 O   0  0  0  0  0  0  0  0  0  0  0  0
  -11.7658   -0.7245   -1.9601 C   0  0  0  0  0  0  0  0  0  0  0  0
   -2.3868    0.2079    2.2113 C   0  0  0  0  0  0  0  0  0  0  0  0
    1.0077    0.5857   -0.4541 O   0  0  0  0  0  0  0  0  0  0  0  0
    2.1766   -0.0112   -1.0172 C   0  0  0  0  0  0  0  0  0  0  0  0
    2.0710    0.1289   -2.5335 C   0  0  0  0  0  0  0  0  0  0  0  0
   11.7449    1.7992    3.1738 H   0  0  0  0  0  0  0  0  0  0  0  0
   12.9462    1.4349    1.9121 H   0  0  0  0  0  0  0  0  0  0  0  0
   11.7220    2.6610    1.6204 H   0  0  0  0  0  0  0  0  0  0  0  0
    9.9404    0.9691    1.6915 H   0  0  0  0  0  0  0  0  0  0  0  0
   10.6639   -0.2940   -1.6672 H   0  0  0  0  0  0  0  0  0  0  0  0
    9.9350   -2.4388   -0.6047 H   0  0  0  0  0  0  0  0  0  0  0  0
   11.6501   -2.0427   -0.3221 H   0  0  0  0  0  0  0  0  0  0  0  0
   10.7014   -2.8134    1.7799 H   0  0  0  0  0  0  0  0  0  0  0  0
    8.6059   -1.0788    1.0996 H   0  0  0  0  0  0  0  0  0  0  0  0
   12.2716   -0.9942    2.0736 H   0  0  0  0  0  0  0  0  0  0  0  0
    9.8902   -0.9920    3.5369 H   0  0  0  0  0  0  0  0  0  0  0  0
    9.4470    1.7097   -1.5460 H   0  0  0  0  0  0  0  0  0  0  0  0
    7.6519    1.3686   -3.2207 H   0  0  0  0  0  0  0  0  0  0  0  0
    8.2855   -0.7202   -4.0031 H   0  0  0  0  0  0  0  0  0  0  0  0
    6.1143   -0.5751   -3.0800 H   0  0  0  0  0  0  0  0  0  0  0  0
    6.8741   -1.1167   -1.6103 H   0  0  0  0  0  0  0  0  0  0  0  0
    5.3539    1.5204   -1.9951 H   0  0  0  0  0  0  0  0  0  0  0  0
    8.0037    2.0873    0.5356 H   0  0  0  0  0  0  0  0  0  0  0  0
    6.8388    3.2175   -2.0622 H   0  0  0  0  0  0  0  0  0  0  0  0
    8.1762    3.8939   -1.1198 H   0  0  0  0  0  0  0  0  0  0  0  0
    6.5353    3.8159   -0.4401 H   0  0  0  0  0  0  0  0  0  0  0  0
    3.5112    1.6942   -0.8221 H   0  0  0  0  0  0  0  0  0  0  0  0
    3.6213   -0.4017    1.4125 H   0  0  0  0  0  0  0  0  0  0  0  0
    5.3078    1.1872    1.1480 H   0  0  0  0  0  0  0  0  0  0  0  0
    2.0859    1.0364    2.6976 H   0  0  0  0  0  0  0  0  0  0  0  0
    2.0437    2.2184    1.4178 H   0  0  0  0  0  0  0  0  0  0  0  0
    0.9720   -0.6497    1.2133 H   0  0  0  0  0  0  0  0  0  0  0  0
   -1.2230   -0.6452    0.6223 H   0  0  0  0  0  0  0  0  0  0  0  0
   -1.4222    1.2179   -0.9684 H   0  0  0  0  0  0  0  0  0  0  0  0
   -2.1137    2.2608    0.2381 H   0  0  0  0  0  0  0  0  0  0  0  0
   -3.8579    1.4122   -1.2417 H   0  0  0  0  0  0  0  0  0  0  0  0
   -3.3505   -0.2518   -0.9921 H   0  0  0  0  0  0  0  0  0  0  0  0
   -5.5068    1.9871    2.0438 H   0  0  0  0  0  0  0  0  0  0  0  0
   -5.1300    2.6513    0.4556 H   0  0  0  0  0  0  0  0  0  0  0  0
   -3.8717    2.4865    1.6621 H   0  0  0  0  0  0  0  0  0  0  0  0
   -3.5660   -1.3036    1.3054 H   0  0  0  0  0  0  0  0  0  0  0  0
   -4.8924    0.3384    3.5113 H   0  0  0  0  0  0  0  0  0  0  0  0
   -4.1479   -1.2406    3.6966 H   0  0  0  0  0  0  0  0  0  0  0  0
   -6.5981   -1.4087    3.4160 H   0  0  0  0  0  0  0  0  0  0  0  0
   -5.7033   -2.2829    2.1798 H   0  0  0  0  0  0  0  0  0  0  0  0
   -7.0076    0.4507    1.9057 H   0  0  0  0  0  0  0  0  0  0  0  0
   -5.4510   -1.1033   -0.2055 H   0  0  0  0  0  0  0  0  0  0  0  0
   -6.8939    1.5875   -0.4491 H   0  0  0  0  0  0  0  0  0  0  0  0
   -5.9137    0.8165   -1.6912 H   0  0  0  0  0  0  0  0  0  0  0  0
   -8.3091    0.4283   -2.0768 H   0  0  0  0  0  0  0  0  0  0  0  0
   -6.7659   -1.0161   -2.7779 H   0  0  0  0  0  0  0  0  0  0  0  0
   -8.8309    1.4329    0.7900 H   0  0  0  0  0  0  0  0  0  0  0  0
   -9.9144    1.2776   -0.5885 H   0  0  0  0  0  0  0  0  0  0  0  0
  -10.3289    0.5183    0.9475 H   0  0  0  0  0  0  0  0  0  0  0  0
  -10.5732   -1.6710    0.2231 H   0  0  0  0  0  0  0  0  0  0  0  0
   -8.6625   -3.4433   -1.2692 H   0  0  0  0  0  0  0  0  0  0  0  0
   -9.6846   -3.7329    0.1269 H   0  0  0  0  0  0  0  0  0  0  0  0
   -6.9050   -2.8357    0.0200 H   0  0  0  0  0  0  0  0  0  0  0  0
   -7.8289   -3.3689    1.4252 H   0  0  0  0  0  0  0  0  0  0  0  0
   -8.8628   -0.4086    2.6113 H   0  0  0  0  0  0  0  0  0  0  0  0
   -9.4405   -2.7376   -3.3131 H   0  0  0  0  0  0  0  0  0  0  0  0
  -12.5579   -1.1109   -1.3117 H   0  0  0  0  0  0  0  0  0  0  0  0
  -11.6070    0.3360   -1.7538 H   0  0  0  0  0  0  0  0  0  0  0  0
   -2.4795    1.1594    2.7487 H   0  0  0  0  0  0  0  0  0  0  0  0
   -1.9293   -0.4809    2.9339 H   0  0  0  0  0  0  0  0  0  0  0  0
    2.1779   -1.0849   -0.7856 H   0  0  0  0  0  0  0  0  0  0  0  0
    2.0404    1.1841   -2.8269 H   0  0  0  0  0  0  0  0  0  0  0  0
    2.9094   -0.3532   -3.0448 H   0  0  0  0  0  0  0  0  0  0  0  0
    1.1401   -0.3233   -2.8928 H   0  0  0  0  0  0  0  0  0  0  0  0
  1  2  1  0
  2  3  1  0
  3  4  1  0
  4  5  1  0
  5  6  1  0
  6  7  1  0
  6  8  1  0
  8  9  1  0
  4 10  1  0
 10 11  1  0
 11 12  1  0
 12 13  1  0
 12 14  1  0
 14 15  1  0
 15 16  1  0
 16 17  1  0
 17 18  1  0
 15 19  1  0
 19 20  1  0
 20 21  1  0
 21 22  1  0
 21 23  1  0
 23 24  1  0
 24 25  1  0
 25 26  1  0
 26 27  1  0
 27 28  1  0
 28 29  1  0
 29 30  1  0
 29 31  1  0
 31 32  1  0
 32 33  1  0
 33 34  1  0
 34 35  1  0
 35 36  1  0
 36 37  1  0
 37 38  1  0
 37 39  1  0
 39 40  1  0
 39 41  1  0
 41 42  1  0
 42 43  1  0
 43 44  1  0
 44 45  1  0
 41 46  1  0
 46 47  2  0
 47 48  1  0
 48 49  2  0
 48 50  1  0
 50 51  1  0
 31 52  1  0
 24 53  1  0
 53 54  1  0
 54 55  1  0
  8  2  1  0
 17 11  1  0
 35 29  1  0
 44 34  1  0
 44 39  1  0
 51 46  1  0
 52 26  1  0
 54 20  1  0
  1 56  1  0
  1 57  1  0
  1 58  1  0
  2 59  1  0
  4 60  1  0
  5 61  1  0
  5 62  1  0
  6 63  1  0
  7 64  1  0
  8 65  1  0
  9 66  1  0
 11 67  1  0
 12 68  1  0
 13 69  1  0
 14 70  1  0
 14 71  1  0
 15 72  1  0
 17 73  1  0
 18 74  1  0
 18 75  1  0
 18 76  1  0
 20 77  1  0
 21 78  1  0
 22 79  1  0
 23 80  1  0
 23 81  1  0
 24 82  1  0
 26 83  1  0
 27 84  1  0
 27 85  1  0
 28 86  1  0
 28 87  1  0
 30 88  1  0
 30 89  1  0
 30 90  1  0
 31 91  1  0
 32 92  1  0
 32 93  1  0
 33 94  1  0
 33 95  1  0
 34 96  1  0
 35 97  1  0
 36 98  1  0
 36 99  1  0
 37100  1  0
 38101  1  0
 40102  1  0
 40103  1  0
 40104  1  0
 41105  1  0
 42106  1  0
 42107  1  0
 43108  1  0
 43109  1  0
 45110  1  0
 47111  1  0
 51112  1  0
 51113  1  0
 52114  1  0
 52115  1  0
 54116  1  0
 55117  1  0
 55118  1  0
 55119  1  0
M  END
>  <Energy>  (2) 
154.32799866405023

>  <Real charge>  (2) 
0

>  <Mult>  (2) 
1

$$$$
