mol_827 15
     RDKit          3D

  8  7  0  0  0  0  0  0  0  0999 V2000
   -0.8330    0.0664    0.0475 C   0  0  0  0  0  0  0  0  0  0  0  0
    0.6825   -0.0544   -0.0389 C   0  0  0  0  0  0  0  0  0  0  0  0
    1.3963    1.5466   -0.3772 Cl  0  0  0  0  0  0  0  0  0  0  0  0
    1.3271   -0.6700    1.5079 Cl  0  0  0  0  0  0  0  0  0  0  0  0
    1.1234   -1.1830   -1.3499 Cl  0  0  0  0  0  0  0  0  0  0  0  0
   -1.1357    0.7545    0.8456 H   0  0  0  0  0  0  0  0  0  0  0  0
   -1.2594    0.4430   -0.8898 H   0  0  0  0  0  0  0  0  0  0  0  0
   -1.3014   -0.9031    0.2549 H   0  0  0  0  0  0  0  0  0  0  0  0
  1  2  1  0
  2  3  1  0
  2  4  1  0
  2  5  1  0
  1  6  1  0
  1  7  1  0
  1  8  1  0
M  END
>  <Energy>  (1) 
3.0702619926756425

>  <Real charge>  (1) 
0

>  <Mult>  (1) 
1

$$$$
