mol_400 76
     RDKit          3D

 18 19  0  0  0  0  0  0  0  0999 V2000
   -1.3541    2.3042    0.0237 O   0  0  0  0  0  0  0  0  0  0  0  0
   -1.1678    0.9462   -0.0059 C   0  0  0  0  0  0  0  0  0  0  0  0
   -2.2736    0.1009   -0.0556 C   0  0  0  0  0  0  0  0  0  0  0  0
   -2.0738   -1.2744   -0.0854 C   0  0  0  0  0  0  0  0  0  0  0  0
   -0.7744   -1.7898   -0.0652 C   0  0  0  0  0  0  0  0  0  0  0  0
    0.3424   -0.9655   -0.0157 C   0  0  0  0  0  0  0  0  0  0  0  0
    1.5656   -1.5264    0.0014 N   0  0  0  0  0  0  0  0  0  0  0  0
    2.6390   -0.7070    0.0496 C   0  0  0  0  0  0  0  0  0  0  0  0
    2.5565    0.6709    0.0824 C   0  0  0  0  0  0  0  0  0  0  0  0
    1.2918    1.2449    0.0646 C   0  0  0  0  0  0  0  0  0  0  0  0
    0.1455    0.4313    0.0147 C   0  0  0  0  0  0  0  0  0  0  0  0
   -2.3067    2.4918    0.0041 H   0  0  0  0  0  0  0  0  0  0  0  0
   -3.2861    0.4917   -0.0716 H   0  0  0  0  0  0  0  0  0  0  0  0
   -2.9227   -1.9521   -0.1243 H   0  0  0  0  0  0  0  0  0  0  0  0
   -0.6262   -2.8673   -0.0887 H   0  0  0  0  0  0  0  0  0  0  0  0
    3.6018   -1.2098    0.0615 H   0  0  0  0  0  0  0  0  0  0  0  0
    3.4498    1.2829    0.1208 H   0  0  0  0  0  0  0  0  0  0  0  0
    1.1930    2.3275    0.0895 H   0  0  0  0  0  0  0  0  0  0  0  0
  1  2  1  0
  2  3  2  0
  3  4  1  0
  4  5  2  0
  5  6  1  0
  6  7  2  0
  7  8  1  0
  8  9  2  0
  9 10  1  0
 10 11  2  0
 11  2  1  0
 11  6  1  0
  1 12  1  0
  3 13  1  0
  4 14  1  0
  5 15  1  0
  8 16  1  0
  9 17  1  0
 10 18  1  0
M  END
>  <Energy>  (1) 
31.1500960272528

>  <Real charge>  (1) 
0

>  <Mult>  (1) 
1

$$$$
