mol_452 197
     RDKit          3D

 54 57  0  0  0  0  0  0  0  0999 V2000
    6.1306   -1.7901   -0.6980 C   0  0  0  0  0  0  0  0  0  0  0  0
    5.3418   -0.5413   -0.9468 C   0  0  0  0  0  0  0  0  0  0  0  0
    5.7899    0.4657   -1.4753 O   0  0  0  0  0  0  0  0  0  0  0  0
    4.0655   -0.7043   -0.5026 O   0  0  0  0  0  0  0  0  0  0  0  0
    3.1922    0.4301   -0.6728 C   0  0  0  0  0  0  0  0  0  0  0  0
    2.6080    0.3926   -2.0897 C   0  0  0  0  0  0  0  0  0  0  0  0
    1.2676   -0.3431   -1.9829 C   0  0  0  0  0  0  0  0  0  0  0  0
    1.0982   -0.7360   -0.5047 C   0  0  0  0  0  0  0  0  0  0  0  0
   -0.3588   -0.8325   -0.0006 C   0  0  0  0  0  0  0  0  0  0  0  0
   -1.1844   -1.7883   -0.8743 C   0  0  0  0  0  0  0  0  0  0  0  0
   -2.5914   -1.9674   -0.3222 C   0  0  0  0  0  0  0  0  0  0  0  0
   -3.2981   -0.6430   -0.1605 C   0  0  0  0  0  0  0  0  0  0  0  0
   -4.5291   -0.4793   -0.6774 C   0  0  0  0  0  0  0  0  0  0  0  0
   -5.3167    0.7524   -0.4433 C   0  0  0  0  0  0  0  0  0  0  0  0
   -6.4231    0.8708   -0.9637 O   0  0  0  0  0  0  0  0  0  0  0  0
   -4.7575    1.7795    0.5045 C   0  0  0  0  0  0  0  0  0  0  0  0
   -3.2394    1.8239    0.4056 C   0  0  0  0  0  0  0  0  0  0  0  0
   -2.5529    0.4422    0.6274 C   0  0  0  0  0  0  0  0  0  0  0  0
   -2.6303    0.0814    2.1285 C   0  0  0  0  0  0  0  0  0  0  0  0
   -1.0610    0.5462    0.1159 C   0  0  0  0  0  0  0  0  0  0  0  0
   -0.1932    1.5145    0.9463 C   0  0  0  0  0  0  0  0  0  0  0  0
    1.2230    1.6458    0.3849 C   0  0  0  0  0  0  0  0  0  0  0  0
    1.9600    0.2917    0.2588 C   0  0  0  0  0  0  0  0  0  0  0  0
    2.3544   -0.2246    1.6539 C   0  0  0  0  0  0  0  0  0  0  0  0
    6.1529   -2.0072    0.3729 H   0  0  0  0  0  0  0  0  0  0  0  0
    7.1576   -1.6454   -1.0452 H   0  0  0  0  0  0  0  0  0  0  0  0
    5.6893   -2.6231   -1.2509 H   0  0  0  0  0  0  0  0  0  0  0  0
    3.7390    1.3590   -0.4705 H   0  0  0  0  0  0  0  0  0  0  0  0
    2.4316    1.4106   -2.4554 H   0  0  0  0  0  0  0  0  0  0  0  0
    3.2662   -0.1076   -2.8076 H   0  0  0  0  0  0  0  0  0  0  0  0
    1.2593   -1.2327   -2.6226 H   0  0  0  0  0  0  0  0  0  0  0  0
    0.4661    0.3125   -2.3380 H   0  0  0  0  0  0  0  0  0  0  0  0
    1.5503   -1.7325   -0.3879 H   0  0  0  0  0  0  0  0  0  0  0  0
   -0.3088   -1.2709    1.0051 H   0  0  0  0  0  0  0  0  0  0  0  0
   -1.2484   -1.4125   -1.9029 H   0  0  0  0  0  0  0  0  0  0  0  0
   -0.6918   -2.7670   -0.9231 H   0  0  0  0  0  0  0  0  0  0  0  0
   -2.5455   -2.4706    0.6514 H   0  0  0  0  0  0  0  0  0  0  0  0
   -3.1490   -2.6371   -0.9884 H   0  0  0  0  0  0  0  0  0  0  0  0
   -5.0384   -1.2524   -1.2425 H   0  0  0  0  0  0  0  0  0  0  0  0
   -5.0917    1.5410    1.5190 H   0  0  0  0  0  0  0  0  0  0  0  0
   -5.1637    2.7602    0.2330 H   0  0  0  0  0  0  0  0  0  0  0  0
   -2.8678    2.5618    1.1263 H   0  0  0  0  0  0  0  0  0  0  0  0
   -2.9778    2.2056   -0.5913 H   0  0  0  0  0  0  0  0  0  0  0  0
   -3.6607   -0.1261    2.4405 H   0  0  0  0  0  0  0  0  0  0  0  0
   -2.0404   -0.8079    2.3715 H   0  0  0  0  0  0  0  0  0  0  0  0
   -2.2666    0.8998    2.7590 H   0  0  0  0  0  0  0  0  0  0  0  0
   -1.1110    0.9629   -0.9008 H   0  0  0  0  0  0  0  0  0  0  0  0
   -0.6421    2.5134    0.9571 H   0  0  0  0  0  0  0  0  0  0  0  0
   -0.1393    1.1868    1.9893 H   0  0  0  0  0  0  0  0  0  0  0  0
    1.8020    2.3245    1.0242 H   0  0  0  0  0  0  0  0  0  0  0  0
    1.1535    2.1451   -0.5893 H   0  0  0  0  0  0  0  0  0  0  0  0
    3.0622    0.4604    2.1336 H   0  0  0  0  0  0  0  0  0  0  0  0
    2.8283   -1.2111    1.6053 H   0  0  0  0  0  0  0  0  0  0  0  0
    1.4893   -0.3262    2.3157 H   0  0  0  0  0  0  0  0  0  0  0  0
  1  2  1  0
  2  3  2  0
  2  4  1  0
  4  5  1  0
  5  6  1  0
  6  7  1  0
  7  8  1  0
  8  9  1  0
  9 10  1  0
 10 11  1  0
 11 12  1  0
 12 13  2  0
 13 14  1  0
 14 15  2  0
 14 16  1  0
 16 17  1  0
 17 18  1  0
 18 19  1  0
 18 20  1  0
 20 21  1  0
 21 22  1  0
 22 23  1  0
 23 24  1  0
 18 12  1  0
 20  9  1  0
 23  5  1  0
 23  8  1  0
  1 25  1  0
  1 26  1  0
  1 27  1  0
  5 28  1  0
  6 29  1  0
  6 30  1  0
  7 31  1  0
  7 32  1  0
  8 33  1  0
  9 34  1  0
 10 35  1  0
 10 36  1  0
 11 37  1  0
 11 38  1  0
 13 39  1  0
 16 40  1  0
 16 41  1  0
 17 42  1  0
 17 43  1  0
 19 44  1  0
 19 45  1  0
 19 46  1  0
 20 47  1  0
 21 48  1  0
 21 49  1  0
 22 50  1  0
 22 51  1  0
 24 52  1  0
 24 53  1  0
 24 54  1  0
M  END
>  <Energy>  (1) 
58.416968159681524

>  <Real charge>  (1) 
0

>  <Mult>  (1) 
1

$$$$
mol_452 149
     RDKit          3D

 54 57  0  0  0  0  0  0  0  0999 V2000
    6.0266    1.5101   -0.5396 C   0  0  0  0  0  0  0  0  0  0  0  0
    5.1878    0.4364    0.0832 C   0  0  0  0  0  0  0  0  0  0  0  0
    5.4405   -0.1018    1.1511 O   0  0  0  0  0  0  0  0  0  0  0  0
    4.1197    0.1664   -0.7143 O   0  0  0  0  0  0  0  0  0  0  0  0
    3.2096   -0.8363   -0.2487 C   0  0  0  0  0  0  0  0  0  0  0  0
    2.6537   -1.6071   -1.4497 C   0  0  0  0  0  0  0  0  0  0  0  0
    1.2095   -1.9645   -1.0985 C   0  0  0  0  0  0  0  0  0  0  0  0
    0.9620   -1.4145    0.3174 C   0  0  0  0  0  0  0  0  0  0  0  0
   -0.5008   -1.0375    0.6408 C   0  0  0  0  0  0  0  0  0  0  0  0
   -1.4493   -2.2153    0.3734 C   0  0  0  0  0  0  0  0  0  0  0  0
   -2.8752   -1.8832    0.7895 C   0  0  0  0  0  0  0  0  0  0  0  0
   -3.3738   -0.6289    0.1127 C   0  0  0  0  0  0  0  0  0  0  0  0
   -4.5570   -0.6445   -0.5268 C   0  0  0  0  0  0  0  0  0  0  0  0
   -5.1503    0.5846   -1.1009 C   0  0  0  0  0  0  0  0  0  0  0  0
   -6.2163    0.5152   -1.7074 O   0  0  0  0  0  0  0  0  0  0  0  0
   -4.4563    1.8940   -0.8373 C   0  0  0  0  0  0  0  0  0  0  0  0
   -2.9478    1.6967   -0.7929 C   0  0  0  0  0  0  0  0  0  0  0  0
   -2.4836    0.6153    0.2293 C   0  0  0  0  0  0  0  0  0  0  0  0
   -2.6375    1.1815    1.6594 C   0  0  0  0  0  0  0  0  0  0  0  0
   -0.9858    0.2351   -0.1026 C   0  0  0  0  0  0  0  0  0  0  0  0
    0.0071    1.3935    0.1279 C   0  0  0  0  0  0  0  0  0  0  0  0
    1.4329    1.0198   -0.2788 C   0  0  0  0  0  0  0  0  0  0  0  0
    1.9583   -0.2417    0.4433 C   0  0  0  0  0  0  0  0  0  0  0  0
    2.2592    0.0864    1.9152 C   0  0  0  0  0  0  0  0  0  0  0  0
    6.3937    1.1761   -1.5132 H   0  0  0  0  0  0  0  0  0  0  0  0
    5.4389    2.4258   -0.6427 H   0  0  0  0  0  0  0  0  0  0  0  0
    6.8861    1.7179    0.1041 H   0  0  0  0  0  0  0  0  0  0  0  0
    3.7129   -1.5604    0.4068 H   0  0  0  0  0  0  0  0  0  0  0  0
    2.6910   -1.0110   -2.3691 H   0  0  0  0  0  0  0  0  0  0  0  0
    3.2500   -2.5067   -1.6389 H   0  0  0  0  0  0  0  0  0  0  0  0
    0.5379   -1.5220   -1.8410 H   0  0  0  0  0  0  0  0  0  0  0  0
    1.0539   -3.0485   -1.1300 H   0  0  0  0  0  0  0  0  0  0  0  0
    1.2613   -2.2058    1.0216 H   0  0  0  0  0  0  0  0  0  0  0  0
   -0.5352   -0.8309    1.7188 H   0  0  0  0  0  0  0  0  0  0  0  0
   -1.4401   -2.4841   -0.6902 H   0  0  0  0  0  0  0  0  0  0  0  0
   -1.1110   -3.0989    0.9281 H   0  0  0  0  0  0  0  0  0  0  0  0
   -2.9211   -1.7466    1.8768 H   0  0  0  0  0  0  0  0  0  0  0  0
   -3.5185   -2.7416    0.5600 H   0  0  0  0  0  0  0  0  0  0  0  0
   -5.1696   -1.5356   -0.6109 H   0  0  0  0  0  0  0  0  0  0  0  0
   -4.7037    2.5877   -1.6485 H   0  0  0  0  0  0  0  0  0  0  0  0
   -4.8390    2.3131    0.0984 H   0  0  0  0  0  0  0  0  0  0  0  0
   -2.6153    1.4124   -1.8012 H   0  0  0  0  0  0  0  0  0  0  0  0
   -2.4795    2.6636   -0.5743 H   0  0  0  0  0  0  0  0  0  0  0  0
   -2.1610    2.1627    1.7577 H   0  0  0  0  0  0  0  0  0  0  0  0
   -2.1954    0.5243    2.4147 H   0  0  0  0  0  0  0  0  0  0  0  0
   -3.6919    1.3117    1.9299 H   0  0  0  0  0  0  0  0  0  0  0  0
   -0.9559    0.0045   -1.1777 H   0  0  0  0  0  0  0  0  0  0  0  0
   -0.2882    2.2704   -0.4576 H   0  0  0  0  0  0  0  0  0  0  0  0
    0.0017    1.7028    1.1782 H   0  0  0  0  0  0  0  0  0  0  0  0
    1.4485    0.8778   -1.3666 H   0  0  0  0  0  0  0  0  0  0  0  0
    2.0950    1.8718   -0.0791 H   0  0  0  0  0  0  0  0  0  0  0  0
    1.3580    0.3721    2.4660 H   0  0  0  0  0  0  0  0  0  0  0  0
    2.9709    0.9144    1.9988 H   0  0  0  0  0  0  0  0  0  0  0  0
    2.6923   -0.7768    2.4331 H   0  0  0  0  0  0  0  0  0  0  0  0
  1  2  1  0
  2  3  2  0
  2  4  1  0
  4  5  1  0
  5  6  1  0
  6  7  1  0
  7  8  1  0
  8  9  1  0
  9 10  1  0
 10 11  1  0
 11 12  1  0
 12 13  2  0
 13 14  1  0
 14 15  2  0
 14 16  1  0
 16 17  1  0
 17 18  1  0
 18 19  1  0
 18 20  1  0
 20 21  1  0
 21 22  1  0
 22 23  1  0
 23 24  1  0
 18 12  1  0
 20  9  1  0
 23  5  1  0
 23  8  1  0
  1 25  1  0
  1 26  1  0
  1 27  1  0
  5 28  1  0
  6 29  1  0
  6 30  1  0
  7 31  1  0
  7 32  1  0
  8 33  1  0
  9 34  1  0
 10 35  1  0
 10 36  1  0
 11 37  1  0
 11 38  1  0
 13 39  1  0
 16 40  1  0
 16 41  1  0
 17 42  1  0
 17 43  1  0
 19 44  1  0
 19 45  1  0
 19 46  1  0
 20 47  1  0
 21 48  1  0
 21 49  1  0
 22 50  1  0
 22 51  1  0
 24 52  1  0
 24 53  1  0
 24 54  1  0
M  END
>  <Energy>  (2) 
58.65205067539448

>  <Real charge>  (2) 
0

>  <Mult>  (2) 
1

$$$$
mol_452 134
     RDKit          3D

 54 57  0  0  0  0  0  0  0  0999 V2000
    6.1509   -0.5847   -1.2137 C   0  0  0  0  0  0  0  0  0  0  0  0
    5.2732   -0.0581   -0.1198 C   0  0  0  0  0  0  0  0  0  0  0  0
    5.5594   -0.0892    1.0680 O   0  0  0  0  0  0  0  0  0  0  0  0
    4.1238    0.4396   -0.6515 O   0  0  0  0  0  0  0  0  0  0  0  0
    3.1725    1.0005    0.2760 C   0  0  0  0  0  0  0  0  0  0  0  0
    2.5961    2.2514   -0.3970 C   0  0  0  0  0  0  0  0  0  0  0  0
    1.3097    1.8092   -1.1013 C   0  0  0  0  0  0  0  0  0  0  0  0
    1.1603    0.3009   -0.8366 C   0  0  0  0  0  0  0  0  0  0  0  0
   -0.2900   -0.2303   -0.7984 C   0  0  0  0  0  0  0  0  0  0  0  0
   -1.0479    0.1365   -2.0829 C   0  0  0  0  0  0  0  0  0  0  0  0
   -2.4430   -0.4717   -2.0955 C   0  0  0  0  0  0  0  0  0  0  0  0
   -3.2346   -0.0724   -0.8733 C   0  0  0  0  0  0  0  0  0  0  0  0
   -4.4705    0.4377   -1.0195 C   0  0  0  0  0  0  0  0  0  0  0  0
   -5.3369    0.7304    0.1450 C   0  0  0  0  0  0  0  0  0  0  0  0
   -6.4451    1.2288   -0.0360 O   0  0  0  0  0  0  0  0  0  0  0  0
   -4.8509    0.3185    1.5087 C   0  0  0  0  0  0  0  0  0  0  0  0
   -3.3384    0.4609    1.5995 C   0  0  0  0  0  0  0  0  0  0  0  0
   -2.5651   -0.3093    0.4867 C   0  0  0  0  0  0  0  0  0  0  0  0
   -2.6266   -1.8234    0.7926 C   0  0  0  0  0  0  0  0  0  0  0  0
   -1.0804    0.2320    0.4542 C   0  0  0  0  0  0  0  0  0  0  0  0
   -0.2815   -0.0898    1.7343 C   0  0  0  0  0  0  0  0  0  0  0  0
    1.1262    0.5062    1.7010 C   0  0  0  0  0  0  0  0  0  0  0  0
    1.9509    0.0648    0.4689 C   0  0  0  0  0  0  0  0  0  0  0  0
    2.3619   -1.4104    0.6148 C   0  0  0  0  0  0  0  0  0  0  0  0
    7.0826   -0.9609   -0.7817 H   0  0  0  0  0  0  0  0  0  0  0  0
    5.6473   -1.4067   -1.7286 H   0  0  0  0  0  0  0  0  0  0  0  0
    6.3928    0.2185   -1.9143 H   0  0  0  0  0  0  0  0  0  0  0  0
    3.6511    1.2701    1.2244 H   0  0  0  0  0  0  0  0  0  0  0  0
    2.3513    3.0112    0.3542 H   0  0  0  0  0  0  0  0  0  0  0  0
    3.2966    2.7023   -1.1082 H   0  0  0  0  0  0  0  0  0  0  0  0
    0.4669    2.3895   -0.7124 H   0  0  0  0  0  0  0  0  0  0  0  0
    1.3656    2.0095   -2.1772 H   0  0  0  0  0  0  0  0  0  0  0  0
    1.6757   -0.2173   -1.6594 H   0  0  0  0  0  0  0  0  0  0  0  0
   -0.2169   -1.3256   -0.7650 H   0  0  0  0  0  0  0  0  0  0  0  0
   -1.1311    1.2256   -2.1841 H   0  0  0  0  0  0  0  0  0  0  0  0
   -0.4928   -0.2229   -2.9578 H   0  0  0  0  0  0  0  0  0  0  0  0
   -2.9529   -0.1653   -3.0172 H   0  0  0  0  0  0  0  0  0  0  0  0
   -2.3696   -1.5654   -2.1338 H   0  0  0  0  0  0  0  0  0  0  0  0
   -4.9259    0.6104   -1.9886 H   0  0  0  0  0  0  0  0  0  0  0  0
   -5.3182    0.9701    2.2554 H   0  0  0  0  0  0  0  0  0  0  0  0
   -5.1746   -0.7089    1.7023 H   0  0  0  0  0  0  0  0  0  0  0  0
   -3.0964    1.5313    1.5379 H   0  0  0  0  0  0  0  0  0  0  0  0
   -3.0192    0.1288    2.5944 H   0  0  0  0  0  0  0  0  0  0  0  0
   -1.9815   -2.4066    0.1281 H   0  0  0  0  0  0  0  0  0  0  0  0
   -3.6430   -2.2173    0.6747 H   0  0  0  0  0  0  0  0  0  0  0  0
   -2.3200   -2.0394    1.8216 H   0  0  0  0  0  0  0  0  0  0  0  0
   -1.1522    1.3281    0.3964 H   0  0  0  0  0  0  0  0  0  0  0  0
   -0.2124   -1.1718    1.8844 H   0  0  0  0  0  0  0  0  0  0  0  0
   -0.7942    0.3138    2.6139 H   0  0  0  0  0  0  0  0  0  0  0  0
    1.6568    0.2276    2.6205 H   0  0  0  0  0  0  0  0  0  0  0  0
    1.0291    1.5982    1.7354 H   0  0  0  0  0  0  0  0  0  0  0  0
    3.0124   -1.5479    1.4854 H   0  0  0  0  0  0  0  0  0  0  0  0
    1.4974   -2.0688    0.7420 H   0  0  0  0  0  0  0  0  0  0  0  0
    2.9011   -1.7725   -0.2671 H   0  0  0  0  0  0  0  0  0  0  0  0
  1  2  1  0
  2  3  2  0
  2  4  1  0
  4  5  1  0
  5  6  1  0
  6  7  1  0
  7  8  1  0
  8  9  1  0
  9 10  1  0
 10 11  1  0
 11 12  1  0
 12 13  2  0
 13 14  1  0
 14 15  2  0
 14 16  1  0
 16 17  1  0
 17 18  1  0
 18 19  1  0
 18 20  1  0
 20 21  1  0
 21 22  1  0
 22 23  1  0
 23 24  1  0
 18 12  1  0
 20  9  1  0
 23  5  1  0
 23  8  1  0
  1 25  1  0
  1 26  1  0
  1 27  1  0
  5 28  1  0
  6 29  1  0
  6 30  1  0
  7 31  1  0
  7 32  1  0
  8 33  1  0
  9 34  1  0
 10 35  1  0
 10 36  1  0
 11 37  1  0
 11 38  1  0
 13 39  1  0
 16 40  1  0
 16 41  1  0
 17 42  1  0
 17 43  1  0
 19 44  1  0
 19 45  1  0
 19 46  1  0
 20 47  1  0
 21 48  1  0
 21 49  1  0
 22 50  1  0
 22 51  1  0
 24 52  1  0
 24 53  1  0
 24 54  1  0
M  END
>  <Energy>  (3) 
59.1460547713868

>  <Real charge>  (3) 
0

>  <Mult>  (3) 
1

$$$$
