mol_242 124
     RDKit          3D

 17 17  0  0  0  0  0  0  0  0999 V2000
    2.3613   -0.7872    0.4193 C   0  0  0  0  0  0  0  0  0  0  0  0
    1.0292   -0.1270    0.2217 C   0  0  0  0  0  0  0  0  0  0  0  0
    0.9137    1.2657    0.2707 C   0  0  0  0  0  0  0  0  0  0  0  0
   -0.3142    1.8761    0.0205 C   0  0  0  0  0  0  0  0  0  0  0  0
   -1.4359    1.0977   -0.2711 C   0  0  0  0  0  0  0  0  0  0  0  0
   -1.3533   -0.2960   -0.2783 C   0  0  0  0  0  0  0  0  0  0  0  0
   -2.4485   -1.0654   -0.6914 N   0  0  0  0  0  0  0  0  0  0  0  0
   -0.1041   -0.8949   -0.0864 C   0  0  0  0  0  0  0  0  0  0  0  0
    2.8757   -0.8873   -0.5413 H   0  0  0  0  0  0  0  0  0  0  0  0
    2.2419   -1.7813    0.8631 H   0  0  0  0  0  0  0  0  0  0  0  0
    2.9904   -0.2025    1.0986 H   0  0  0  0  0  0  0  0  0  0  0  0
    1.7827    1.8834    0.4844 H   0  0  0  0  0  0  0  0  0  0  0  0
   -0.3957    2.9595    0.0353 H   0  0  0  0  0  0  0  0  0  0  0  0
   -2.3772    1.5913   -0.4962 H   0  0  0  0  0  0  0  0  0  0  0  0
   -3.3453   -0.6298   -0.5017 H   0  0  0  0  0  0  0  0  0  0  0  0
   -2.4121   -2.0279   -0.3715 H   0  0  0  0  0  0  0  0  0  0  0  0
   -0.0088   -1.9743   -0.1757 H   0  0  0  0  0  0  0  0  0  0  0  0
  1  2  1  0
  2  3  2  0
  3  4  1  0
  4  5  2  0
  5  6  1  0
  6  7  1  0
  6  8  2  0
  8  2  1  0
  1  9  1  0
  1 10  1  0
  1 11  1  0
  3 12  1  0
  4 13  1  0
  5 14  1  0
  7 15  1  0
  7 16  1  0
  8 17  1  0
M  END
>  <Energy>  (1) 
9.099738108317789

>  <Real charge>  (1) 
0

>  <Mult>  (1) 
1

$$$$
