mol_1075 153
     RDKit          3D

 24 24  0  0  0  0  0  0  0  0999 V2000
   -3.0863    0.6062    0.1205 C   0  0  0  0  0  0  0  0  0  0  0  0
   -1.6800    0.1316   -0.2540 C   0  0  0  0  0  0  0  0  0  0  0  0
   -1.6851   -1.3857   -0.4565 C   0  0  0  0  0  0  0  0  0  0  0  0
   -0.6763    0.5663    0.8318 C   0  0  0  0  0  0  0  0  0  0  0  0
    0.7680    0.3356    0.4554 C   0  0  0  0  0  0  0  0  0  0  0  0
    1.5077   -0.6890    1.0609 C   0  0  0  0  0  0  0  0  0  0  0  0
    2.8412   -0.9030    0.7082 C   0  0  0  0  0  0  0  0  0  0  0  0
    3.4482   -0.0953   -0.2515 C   0  0  0  0  0  0  0  0  0  0  0  0
    2.7226    0.9272   -0.8593 C   0  0  0  0  0  0  0  0  0  0  0  0
    1.3890    1.1425   -0.5080 C   0  0  0  0  0  0  0  0  0  0  0  0
   -3.4165    0.1643    1.0668 H   0  0  0  0  0  0  0  0  0  0  0  0
   -3.1137    1.6958    0.2267 H   0  0  0  0  0  0  0  0  0  0  0  0
   -3.8098    0.3293   -0.6537 H   0  0  0  0  0  0  0  0  0  0  0  0
   -1.4130    0.6013   -1.2092 H   0  0  0  0  0  0  0  0  0  0  0  0
   -2.4366   -1.6748   -1.1993 H   0  0  0  0  0  0  0  0  0  0  0  0
   -1.9148   -1.9105    0.4771 H   0  0  0  0  0  0  0  0  0  0  0  0
   -0.7158   -1.7424   -0.8185 H   0  0  0  0  0  0  0  0  0  0  0  0
   -0.9022    0.0536    1.7761 H   0  0  0  0  0  0  0  0  0  0  0  0
   -0.7978    1.6374    1.0426 H   0  0  0  0  0  0  0  0  0  0  0  0
    1.0483   -1.3301    1.8097 H   0  0  0  0  0  0  0  0  0  0  0  0
    3.4062   -1.7010    1.1826 H   0  0  0  0  0  0  0  0  0  0  0  0
    4.4863   -0.2627   -0.5255 H   0  0  0  0  0  0  0  0  0  0  0  0
    3.1950    1.5581   -1.6075 H   0  0  0  0  0  0  0  0  0  0  0  0
    0.8356    1.9452   -0.9899 H   0  0  0  0  0  0  0  0  0  0  0  0
  1  2  1  0
  2  3  1  0
  2  4  1  0
  4  5  1  0
  5  6  2  0
  6  7  1  0
  7  8  2  0
  8  9  1  0
  9 10  2  0
 10  5  1  0
  1 11  1  0
  1 12  1  0
  1 13  1  0
  2 14  1  0
  3 15  1  0
  3 16  1  0
  3 17  1  0
  4 18  1  0
  4 19  1  0
  6 20  1  0
  7 21  1  0
  8 22  1  0
  9 23  1  0
 10 24  1  0
M  END
>  <Energy>  (1) 
22.315822057778842

>  <Real charge>  (1) 
0

>  <Mult>  (1) 
1

$$$$
mol_1075 2
     RDKit          3D

 24 24  0  0  0  0  0  0  0  0999 V2000
   -2.2039    0.8004   -0.6290 C   0  0  0  0  0  0  0  0  0  0  0  0
   -1.8719   -0.0368    0.6068 C   0  0  0  0  0  0  0  0  0  0  0  0
   -1.8769   -1.5262    0.2606 C   0  0  0  0  0  0  0  0  0  0  0  0
   -0.5716    0.4130    1.3053 C   0  0  0  0  0  0  0  0  0  0  0  0
    0.7002    0.2843    0.5010 C   0  0  0  0  0  0  0  0  0  0  0  0
    1.1459    1.3421   -0.3033 C   0  0  0  0  0  0  0  0  0  0  0  0
    2.3211    1.2223   -1.0471 C   0  0  0  0  0  0  0  0  0  0  0  0
    3.0649    0.0455   -0.9925 C   0  0  0  0  0  0  0  0  0  0  0  0
    2.6350   -1.0114   -0.1930 C   0  0  0  0  0  0  0  0  0  0  0  0
    1.4599   -0.8925    0.5511 C   0  0  0  0  0  0  0  0  0  0  0  0
   -2.1988    1.8689   -0.3900 H   0  0  0  0  0  0  0  0  0  0  0  0
   -1.4931    0.6252   -1.4428 H   0  0  0  0  0  0  0  0  0  0  0  0
   -3.2020    0.5493   -1.0044 H   0  0  0  0  0  0  0  0  0  0  0  0
   -2.6827    0.1258    1.3300 H   0  0  0  0  0  0  0  0  0  0  0  0
   -1.1575   -1.7633   -0.5296 H   0  0  0  0  0  0  0  0  0  0  0  0
   -1.6364   -2.1326    1.1400 H   0  0  0  0  0  0  0  0  0  0  0  0
   -2.8671   -1.8334   -0.0934 H   0  0  0  0  0  0  0  0  0  0  0  0
   -0.6800    1.4591    1.6228 H   0  0  0  0  0  0  0  0  0  0  0  0
   -0.4534   -0.1532    2.2392 H   0  0  0  0  0  0  0  0  0  0  0  0
    0.5780    2.2682   -0.3562 H   0  0  0  0  0  0  0  0  0  0  0  0
    2.6559    2.0484   -1.6688 H   0  0  0  0  0  0  0  0  0  0  0  0
    3.9796   -0.0473   -1.5716 H   0  0  0  0  0  0  0  0  0  0  0  0
    3.2150   -1.9293   -0.1479 H   0  0  0  0  0  0  0  0  0  0  0  0
    1.1394   -1.7266    1.1712 H   0  0  0  0  0  0  0  0  0  0  0  0
  1  2  1  0
  2  3  1  0
  2  4  1  0
  4  5  1  0
  5  6  2  0
  6  7  1  0
  7  8  2  0
  8  9  1  0
  9 10  2  0
 10  5  1  0
  1 11  1  0
  1 12  1  0
  1 13  1  0
  2 14  1  0
  3 15  1  0
  3 16  1  0
  3 17  1  0
  4 18  1  0
  4 19  1  0
  6 20  1  0
  7 21  1  0
  8 22  1  0
  9 23  1  0
 10 24  1  0
M  END
>  <Energy>  (2) 
22.88023591517475

>  <Real charge>  (2) 
0

>  <Mult>  (2) 
1

$$$$
