mol_1085 253
     RDKit          3D

 53 56  0  0  0  0  0  0  0  0999 V2000
   -5.5079    0.5547    2.2889 C   0  0  0  0  0  0  0  0  0  0  0  0
   -4.9005    0.3835    0.9296 C   0  0  0  0  0  0  0  0  0  0  0  0
   -5.4281    0.7593   -0.1062 O   0  0  0  0  0  0  0  0  0  0  0  0
   -3.6933   -0.2288    1.0457 O   0  0  0  0  0  0  0  0  0  0  0  0
   -2.9495   -0.5399   -0.1502 C   0  0  0  0  0  0  0  0  0  0  0  0
   -2.6860    0.6856   -1.0504 C   0  0  0  0  0  0  0  0  0  0  0  0
   -1.2944    0.4913   -1.6658 C   0  0  0  0  0  0  0  0  0  0  0  0
   -0.7118   -0.7937   -1.0511 C   0  0  0  0  0  0  0  0  0  0  0  0
    0.8209   -0.8171   -0.8857 C   0  0  0  0  0  0  0  0  0  0  0  0
    1.5343   -0.5513   -2.2197 C   0  0  0  0  0  0  0  0  0  0  0  0
    3.0407   -0.7243   -2.0742 C   0  0  0  0  0  0  0  0  0  0  0  0
    3.6000    0.1341   -0.9678 C   0  0  0  0  0  0  0  0  0  0  0  0
    4.6948    0.8833   -1.1842 C   0  0  0  0  0  0  0  0  0  0  0  0
    5.3619    1.6006   -0.0737 C   0  0  0  0  0  0  0  0  0  0  0  0
    6.3112    2.3420   -0.3122 O   0  0  0  0  0  0  0  0  0  0  0  0
    4.8983    1.3010    1.3275 C   0  0  0  0  0  0  0  0  0  0  0  0
    3.3883    1.1309    1.3574 C   0  0  0  0  0  0  0  0  0  0  0  0
    2.8852    0.0505    0.3747 C   0  0  0  0  0  0  0  0  0  0  0  0
    1.3354    0.1522    0.2042 C   0  0  0  0  0  0  0  0  0  0  0  0
    0.5948   -0.1030    1.5286 C   0  0  0  0  0  0  0  0  0  0  0  0
   -0.9247   -0.0290    1.3703 C   0  0  0  0  0  0  0  0  0  0  0  0
   -1.4945   -0.9698    0.2697 C   0  0  0  0  0  0  0  0  0  0  0  0
   -1.4270   -2.4203    0.7922 C   0  0  0  0  0  0  0  0  0  0  0  0
   -3.6513   -1.6045   -0.9124 C   0  0  0  0  0  0  0  0  0  0  0  0
   -4.2344   -2.4539   -1.5307 C   0  0  0  0  0  0  0  0  0  0  0  0
   -6.4917    1.0225    2.1904 H   0  0  0  0  0  0  0  0  0  0  0  0
   -5.6345   -0.4214    2.7642 H   0  0  0  0  0  0  0  0  0  0  0  0
   -4.8727    1.2011    2.8996 H   0  0  0  0  0  0  0  0  0  0  0  0
   -2.7045    1.6159   -0.4695 H   0  0  0  0  0  0  0  0  0  0  0  0
   -3.4369    0.8004   -1.8411 H   0  0  0  0  0  0  0  0  0  0  0  0
   -0.6816    1.3742   -1.4585 H   0  0  0  0  0  0  0  0  0  0  0  0
   -1.3606    0.3975   -2.7557 H   0  0  0  0  0  0  0  0  0  0  0  0
   -0.9727   -1.6194   -1.7298 H   0  0  0  0  0  0  0  0  0  0  0  0
    1.0893   -1.8366   -0.5721 H   0  0  0  0  0  0  0  0  0  0  0  0
    1.3187    0.4629   -2.5780 H   0  0  0  0  0  0  0  0  0  0  0  0
    1.1672   -1.2459   -2.9849 H   0  0  0  0  0  0  0  0  0  0  0  0
    3.2673   -1.7741   -1.8484 H   0  0  0  0  0  0  0  0  0  0  0  0
    3.5195   -0.5001   -3.0351 H   0  0  0  0  0  0  0  0  0  0  0  0
    5.1890    0.9486   -2.1471 H   0  0  0  0  0  0  0  0  0  0  0  0
    5.1841    2.1342    1.9785 H   0  0  0  0  0  0  0  0  0  0  0  0
    5.4073    0.3970    1.6786 H   0  0  0  0  0  0  0  0  0  0  0  0
    2.9206    2.0952    1.1164 H   0  0  0  0  0  0  0  0  0  0  0  0
    3.0892    0.8787    2.3809 H   0  0  0  0  0  0  0  0  0  0  0  0
    3.1245   -0.9345    0.8000 H   0  0  0  0  0  0  0  0  0  0  0  0
    1.1050    1.1792   -0.1123 H   0  0  0  0  0  0  0  0  0  0  0  0
    0.8834    0.6452    2.2750 H   0  0  0  0  0  0  0  0  0  0  0  0
    0.8860   -1.0760    1.9402 H   0  0  0  0  0  0  0  0  0  0  0  0
   -1.1825    1.0157    1.1585 H   0  0  0  0  0  0  0  0  0  0  0  0
   -1.3904   -0.2589    2.3373 H   0  0  0  0  0  0  0  0  0  0  0  0
   -1.7082   -3.1481    0.0242 H   0  0  0  0  0  0  0  0  0  0  0  0
   -0.4186   -2.6942    1.1162 H   0  0  0  0  0  0  0  0  0  0  0  0
   -2.0974   -2.5582    1.6478 H   0  0  0  0  0  0  0  0  0  0  0  0
   -4.7609   -3.1998   -2.0802 H   0  0  0  0  0  0  0  0  0  0  0  0
  1  2  1  0
  2  3  2  0
  2  4  1  0
  4  5  1  0
  5  6  1  0
  6  7  1  0
  7  8  1  0
  8  9  1  0
  9 10  1  0
 10 11  1  0
 11 12  1  0
 12 13  2  0
 13 14  1  0
 14 15  2  0
 14 16  1  0
 16 17  1  0
 17 18  1  0
 18 19  1  0
 19 20  1  0
 20 21  1  0
 21 22  1  0
 22 23  1  0
  5 24  1  0
 24 25  3  0
 18 12  1  0
 19  9  1  0
 22  5  1  0
 22  8  1  0
  1 26  1  0
  1 27  1  0
  1 28  1  0
  6 29  1  0
  6 30  1  0
  7 31  1  0
  7 32  1  0
  8 33  1  0
  9 34  1  0
 10 35  1  0
 10 36  1  0
 11 37  1  0
 11 38  1  0
 13 39  1  0
 16 40  1  0
 16 41  1  0
 17 42  1  0
 17 43  1  0
 18 44  1  0
 19 45  1  0
 20 46  1  0
 20 47  1  0
 21 48  1  0
 21 49  1  0
 23 50  1  0
 23 51  1  0
 23 52  1  0
 25 53  1  0
M  END
>  <Energy>  (1) 
52.7163591109812

>  <Real charge>  (1) 
0

>  <Mult>  (1) 
1

$$$$
mol_1085 86
     RDKit          3D

 53 56  0  0  0  0  0  0  0  0999 V2000
   -5.8102   -1.0436    0.9146 C   0  0  0  0  0  0  0  0  0  0  0  0
   -4.9905   -0.6934   -0.2902 C   0  0  0  0  0  0  0  0  0  0  0  0
   -5.3584   -0.8738   -1.4412 O   0  0  0  0  0  0  0  0  0  0  0  0
   -3.8011   -0.1711    0.1080 O   0  0  0  0  0  0  0  0  0  0  0  0
   -2.8442    0.2901   -0.8841 C   0  0  0  0  0  0  0  0  0  0  0  0
   -2.3158   -0.8969   -1.7124 C   0  0  0  0  0  0  0  0  0  0  0  0
   -1.1357   -1.4814   -0.9244 C   0  0  0  0  0  0  0  0  0  0  0  0
   -0.9366   -0.5810    0.3063 C   0  0  0  0  0  0  0  0  0  0  0  0
    0.5098   -0.4826    0.8309 C   0  0  0  0  0  0  0  0  0  0  0  0
    1.0934   -1.8695    1.1388 C   0  0  0  0  0  0  0  0  0  0  0  0
    2.4625   -1.7487    1.7959 C   0  0  0  0  0  0  0  0  0  0  0  0
    3.4119   -0.9202    0.9677 C   0  0  0  0  0  0  0  0  0  0  0  0
    4.6568   -1.3646    0.7236 C   0  0  0  0  0  0  0  0  0  0  0  0
    5.6605   -0.5012    0.0605 C   0  0  0  0  0  0  0  0  0  0  0  0
    6.7644   -0.9591   -0.2217 O   0  0  0  0  0  0  0  0  0  0  0  0
    5.3059    0.9478   -0.1462 C   0  0  0  0  0  0  0  0  0  0  0  0
    3.8422    1.0818   -0.5329 C   0  0  0  0  0  0  0  0  0  0  0  0
    2.8876    0.4280    0.4903 C   0  0  0  0  0  0  0  0  0  0  0  0
    1.4517    0.3012   -0.1120 C   0  0  0  0  0  0  0  0  0  0  0  0
    0.8421    1.6751   -0.4392 C   0  0  0  0  0  0  0  0  0  0  0  0
   -0.5710    1.5626   -1.0135 C   0  0  0  0  0  0  0  0  0  0  0  0
   -1.5598    0.7741   -0.1112 C   0  0  0  0  0  0  0  0  0  0  0  0
   -1.9138    1.6240    1.1274 C   0  0  0  0  0  0  0  0  0  0  0  0
   -3.4297    1.3666   -1.7078 C   0  0  0  0  0  0  0  0  0  0  0  0
   -3.9150    2.2385   -2.3771 C   0  0  0  0  0  0  0  0  0  0  0  0
   -6.7791   -1.4361    0.5927 H   0  0  0  0  0  0  0  0  0  0  0  0
   -5.2986   -1.8116    1.5000 H   0  0  0  0  0  0  0  0  0  0  0  0
   -5.9823   -0.1492    1.5189 H   0  0  0  0  0  0  0  0  0  0  0  0
   -1.9614   -0.5730   -2.6989 H   0  0  0  0  0  0  0  0  0  0  0  0
   -3.0607   -1.6787   -1.8864 H   0  0  0  0  0  0  0  0  0  0  0  0
   -1.3469   -2.5112   -0.6145 H   0  0  0  0  0  0  0  0  0  0  0  0
   -0.2520   -1.5168   -1.5693 H   0  0  0  0  0  0  0  0  0  0  0  0
   -1.5425   -1.0128    1.1172 H   0  0  0  0  0  0  0  0  0  0  0  0
    0.4644    0.0676    1.7822 H   0  0  0  0  0  0  0  0  0  0  0  0
    1.1828   -2.4637    0.2210 H   0  0  0  0  0  0  0  0  0  0  0  0
    0.4216   -2.4172    1.8107 H   0  0  0  0  0  0  0  0  0  0  0  0
    2.3544   -1.2744    2.7796 H   0  0  0  0  0  0  0  0  0  0  0  0
    2.8615   -2.7544    1.9751 H   0  0  0  0  0  0  0  0  0  0  0  0
    5.0176   -2.3320    1.0545 H   0  0  0  0  0  0  0  0  0  0  0  0
    5.5254    1.4966    0.7759 H   0  0  0  0  0  0  0  0  0  0  0  0
    5.9332    1.3527   -0.9477 H   0  0  0  0  0  0  0  0  0  0  0  0
    3.6092    2.1472   -0.6393 H   0  0  0  0  0  0  0  0  0  0  0  0
    3.6954    0.6227   -1.5200 H   0  0  0  0  0  0  0  0  0  0  0  0
    2.8379    1.0796    1.3743 H   0  0  0  0  0  0  0  0  0  0  0  0
    1.5375   -0.2571   -1.0548 H   0  0  0  0  0  0  0  0  0  0  0  0
    0.8373    2.3073    0.4561 H   0  0  0  0  0  0  0  0  0  0  0  0
    1.4571    2.1963   -1.1811 H   0  0  0  0  0  0  0  0  0  0  0  0
   -0.4898    1.0949   -2.0021 H   0  0  0  0  0  0  0  0  0  0  0  0
   -0.9526    2.5761   -1.1914 H   0  0  0  0  0  0  0  0  0  0  0  0
   -2.5483    1.0767    1.8326 H   0  0  0  0  0  0  0  0  0  0  0  0
   -1.0230    1.9304    1.6838 H   0  0  0  0  0  0  0  0  0  0  0  0
   -2.4489    2.5345    0.8366 H   0  0  0  0  0  0  0  0  0  0  0  0
   -4.3562    3.0025   -2.9746 H   0  0  0  0  0  0  0  0  0  0  0  0
  1  2  1  0
  2  3  2  0
  2  4  1  0
  4  5  1  0
  5  6  1  0
  6  7  1  0
  7  8  1  0
  8  9  1  0
  9 10  1  0
 10 11  1  0
 11 12  1  0
 12 13  2  0
 13 14  1  0
 14 15  2  0
 14 16  1  0
 16 17  1  0
 17 18  1  0
 18 19  1  0
 19 20  1  0
 20 21  1  0
 21 22  1  0
 22 23  1  0
  5 24  1  0
 24 25  3  0
 18 12  1  0
 19  9  1  0
 22  5  1  0
 22  8  1  0
  1 26  1  0
  1 27  1  0
  1 28  1  0
  6 29  1  0
  6 30  1  0
  7 31  1  0
  7 32  1  0
  8 33  1  0
  9 34  1  0
 10 35  1  0
 10 36  1  0
 11 37  1  0
 11 38  1  0
 13 39  1  0
 16 40  1  0
 16 41  1  0
 17 42  1  0
 17 43  1  0
 18 44  1  0
 19 45  1  0
 20 46  1  0
 20 47  1  0
 21 48  1  0
 21 49  1  0
 23 50  1  0
 23 51  1  0
 23 52  1  0
 25 53  1  0
M  END
>  <Energy>  (2) 
52.887219624866184

>  <Real charge>  (2) 
0

>  <Mult>  (2) 
1

$$$$
