mol_686 7
     RDKit          3D

 17 18  0  0  0  0  0  0  0  0999 V2000
    2.9199   -0.7260   -0.3650 C   0  0  0  0  0  0  0  0  0  0  0  0
    1.5329   -0.1806   -0.2350 C   0  0  0  0  0  0  0  0  0  0  0  0
    1.3140    1.1825   -0.1354 C   0  0  0  0  0  0  0  0  0  0  0  0
    0.0764    1.7027   -0.0173 N   0  0  0  0  0  0  0  0  0  0  0  0
   -0.9385    0.7991   -0.0027 C   0  0  0  0  0  0  0  0  0  0  0  0
   -2.2594    1.1695    0.1120 C   0  0  0  0  0  0  0  0  0  0  0  0
   -3.3068    0.3178    0.1320 N   0  0  0  0  0  0  0  0  0  0  0  0
   -2.9843   -0.9744    0.0297 C   0  0  0  0  0  0  0  0  0  0  0  0
   -1.7466   -1.4652   -0.0866 N   0  0  0  0  0  0  0  0  0  0  0  0
   -0.7423   -0.5884   -0.1022 C   0  0  0  0  0  0  0  0  0  0  0  0
    0.5033   -1.0636   -0.2181 N   0  0  0  0  0  0  0  0  0  0  0  0
    2.9043   -1.8186   -0.4316 H   0  0  0  0  0  0  0  0  0  0  0  0
    3.3966   -0.3365   -1.2699 H   0  0  0  0  0  0  0  0  0  0  0  0
    3.5200   -0.4464    0.5064 H   0  0  0  0  0  0  0  0  0  0  0  0
    2.1294    1.8979   -0.1478 H   0  0  0  0  0  0  0  0  0  0  0  0
   -2.5198    2.2210    0.1951 H   0  0  0  0  0  0  0  0  0  0  0  0
   -3.7990   -1.6908    0.0420 H   0  0  0  0  0  0  0  0  0  0  0  0
  1  2  1  0
  2  3  2  0
  3  4  1  0
  4  5  2  0
  5  6  1  0
  6  7  2  0
  7  8  1  0
  8  9  2  0
  9 10  1  0
 10 11  2  0
 10  5  1  0
 11  2  1  0
  1 12  1  0
  1 13  1  0
  1 14  1  0
  3 15  1  0
  6 16  1  0
  8 17  1  0
M  END
>  <Energy>  (1) 
67.70835931976445

>  <Real charge>  (1) 
0

>  <Mult>  (1) 
1

$$$$
