mol_704 41
     RDKit          3D

 21 21  0  0  0  0  0  0  0  0999 V2000
   -0.8349    1.8993    1.3757 C   0  0  0  0  0  0  0  0  0  0  0  0
    0.3652    1.2214    0.8162 C   0  0  0  0  0  0  0  0  0  0  0  0
    1.6046    1.4403    1.2158 N   0  0  0  0  0  0  0  0  0  0  0  0
    2.3996    0.6271    0.4560 C   0  0  0  0  0  0  0  0  0  0  0  0
    1.6340   -0.1017   -0.4169 C   0  0  0  0  0  0  0  0  0  0  0  0
    2.0831   -1.0628   -1.3636 N   0  0  0  0  0  4  0  0  0  0  0  0
    3.2997   -1.1012   -1.5778 O   0  0  0  0  0  1  0  0  0  0  0  0
    1.2369   -1.7937   -1.8907 O   0  0  0  0  0  0  0  0  0  0  0  0
    0.3312    0.2804   -0.2022 N   0  0  0  0  0  0  0  0  0  0  0  0
   -0.8633   -0.1281   -0.9292 C   0  0  0  0  0  0  0  0  0  0  0  0
   -1.4733   -1.4224   -0.3966 C   0  0  0  0  0  0  0  0  0  0  0  0
   -2.2152   -1.1598    0.7910 O   0  0  0  0  0  0  0  0  0  0  0  0
   -1.3464    2.4855    0.6066 H   0  0  0  0  0  0  0  0  0  0  0  0
   -0.5420    2.5861    2.1766 H   0  0  0  0  0  0  0  0  0  0  0  0
   -1.5349    1.1753    1.7998 H   0  0  0  0  0  0  0  0  0  0  0  0
    3.4750    0.6100    0.5836 H   0  0  0  0  0  0  0  0  0  0  0  0
   -1.5886    0.6900   -0.8696 H   0  0  0  0  0  0  0  0  0  0  0  0
   -0.5906   -0.2219   -1.9848 H   0  0  0  0  0  0  0  0  0  0  0  0
   -2.1705   -1.8312   -1.1347 H   0  0  0  0  0  0  0  0  0  0  0  0
   -0.7160   -2.1780   -0.1683 H   0  0  0  0  0  0  0  0  0  0  0  0
   -2.5535   -2.0147    1.1130 H   0  0  0  0  0  0  0  0  0  0  0  0
  1  2  1  0
  2  3  2  0
  3  4  1  0
  4  5  2  0
  5  6  1  0
  6  7  1  0
  6  8  2  0
  5  9  1  0
  9 10  1  0
 10 11  1  0
 11 12  1  0
  9  2  1  0
  1 13  1  0
  1 14  1  0
  1 15  1  0
  4 16  1  0
 10 17  1  0
 10 18  1  0
 11 19  1  0
 11 20  1  0
 12 21  1  0
M  CHG  2   6   1   7  -1
M  END
>  <Energy>  (1) 
11.220657883177815

>  <Real charge>  (1) 
0

>  <Mult>  (1) 
1

$$$$
