mol_794 38
     RDKit          3D

 20 19  0  0  0  0  0  0  0  0999 V2000
   -2.2206    0.0591   -1.2201 C   0  0  0  0  0  0  0  0  0  0  0  0
   -1.2376   -0.1496   -0.0657 C   0  0  0  0  0  0  0  0  0  0  0  0
   -1.5538    0.8297    1.0655 C   0  0  0  0  0  0  0  0  0  0  0  0
    0.2052   -0.0081   -0.5770 C   0  0  0  0  0  0  0  0  0  0  0  0
    1.2648   -0.3357    0.4724 C   0  0  0  0  0  0  0  0  0  0  0  0
    2.5501   -0.2743   -0.1636 O   0  0  0  0  0  0  0  0  0  0  0  0
    3.5887   -0.5603    0.6598 C   0  0  0  0  0  0  0  0  0  0  0  0
    3.5221   -0.8517    1.8427 O   0  0  0  0  0  0  0  0  0  0  0  0
   -2.1315    1.0664   -1.6412 H   0  0  0  0  0  0  0  0  0  0  0  0
   -3.2534   -0.0768   -0.8817 H   0  0  0  0  0  0  0  0  0  0  0  0
   -2.0367   -0.6621   -2.0235 H   0  0  0  0  0  0  0  0  0  0  0  0
   -1.3777   -1.1696    0.3142 H   0  0  0  0  0  0  0  0  0  0  0  0
   -2.6046    0.7508    1.3648 H   0  0  0  0  0  0  0  0  0  0  0  0
   -1.3670    1.8643    0.7588 H   0  0  0  0  0  0  0  0  0  0  0  0
   -0.9487    0.6219    1.9531 H   0  0  0  0  0  0  0  0  0  0  0  0
    0.3779    1.0072   -0.9575 H   0  0  0  0  0  0  0  0  0  0  0  0
    0.3548   -0.6710   -1.4396 H   0  0  0  0  0  0  0  0  0  0  0  0
    1.2377    0.3931    1.2894 H   0  0  0  0  0  0  0  0  0  0  0  0
    1.1025   -1.3444    0.8696 H   0  0  0  0  0  0  0  0  0  0  0  0
    4.5276   -0.4891    0.0891 H   0  0  0  0  0  0  0  0  0  0  0  0
  1  2  1  0
  2  3  1  0
  2  4  1  0
  4  5  1  0
  5  6  1  0
  6  7  1  0
  7  8  2  0
  1  9  1  0
  1 10  1  0
  1 11  1  0
  2 12  1  0
  3 13  1  0
  3 14  1  0
  3 15  1  0
  4 16  1  0
  4 17  1  0
  5 18  1  0
  5 19  1  0
  7 20  1  0
M  END
>  <Energy>  (1) 
-5.700955842441858

>  <Real charge>  (1) 
0

>  <Mult>  (1) 
1

$$$$
mol_794 96
     RDKit          3D

 20 19  0  0  0  0  0  0  0  0999 V2000
   -2.3144   -0.6179   -0.7043 C   0  0  0  0  0  0  0  0  0  0  0  0
   -0.9941    0.0568   -0.3229 C   0  0  0  0  0  0  0  0  0  0  0  0
   -1.2472    1.1178    0.7489 C   0  0  0  0  0  0  0  0  0  0  0  0
    0.0221   -1.0085    0.1344 C   0  0  0  0  0  0  0  0  0  0  0  0
    1.4131   -0.4649    0.4589 C   0  0  0  0  0  0  0  0  0  0  0  0
    1.9403    0.2040   -0.6931 O   0  0  0  0  0  0  0  0  0  0  0  0
    3.1674    0.7485   -0.5040 C   0  0  0  0  0  0  0  0  0  0  0  0
    3.8302    0.7144    0.5198 O   0  0  0  0  0  0  0  0  0  0  0  0
   -2.1597   -1.3541   -1.5002 H   0  0  0  0  0  0  0  0  0  0  0  0
   -3.0372    0.1194   -1.0695 H   0  0  0  0  0  0  0  0  0  0  0  0
   -2.7600   -1.1335    0.1533 H   0  0  0  0  0  0  0  0  0  0  0  0
   -0.6079    0.5596   -1.2182 H   0  0  0  0  0  0  0  0  0  0  0  0
   -1.5741    0.6619    1.6895 H   0  0  0  0  0  0  0  0  0  0  0  0
   -0.3457    1.7049    0.9484 H   0  0  0  0  0  0  0  0  0  0  0  0
   -2.0244    1.8187    0.4254 H   0  0  0  0  0  0  0  0  0  0  0  0
    0.1253   -1.7478   -0.6707 H   0  0  0  0  0  0  0  0  0  0  0  0
   -0.3641   -1.5418    1.0117 H   0  0  0  0  0  0  0  0  0  0  0  0
    1.3712    0.2254    1.3086 H   0  0  0  0  0  0  0  0  0  0  0  0
    2.0710   -1.3025    0.7199 H   0  0  0  0  0  0  0  0  0  0  0  0
    3.4882    1.2395   -1.4358 H   0  0  0  0  0  0  0  0  0  0  0  0
  1  2  1  0
  2  3  1  0
  2  4  1  0
  4  5  1  0
  5  6  1  0
  6  7  1  0
  7  8  2  0
  1  9  1  0
  1 10  1  0
  1 11  1  0
  2 12  1  0
  3 13  1  0
  3 14  1  0
  3 15  1  0
  4 16  1  0
  4 17  1  0
  5 18  1  0
  5 19  1  0
  7 20  1  0
M  END
>  <Energy>  (2) 
-5.46671107956821

>  <Real charge>  (2) 
0

>  <Mult>  (2) 
1

$$$$
mol_794 53
     RDKit          3D

 20 19  0  0  0  0  0  0  0  0999 V2000
   -1.5686   -1.6846   -0.9300 C   0  0  0  0  0  0  0  0  0  0  0  0
   -1.0726   -0.2612   -0.6641 C   0  0  0  0  0  0  0  0  0  0  0  0
   -1.8032    0.3224    0.5460 C   0  0  0  0  0  0  0  0  0  0  0  0
    0.4536   -0.2666   -0.4786 C   0  0  0  0  0  0  0  0  0  0  0  0
    1.0616    1.1299   -0.3587 C   0  0  0  0  0  0  0  0  0  0  0  0
    2.4964    1.0389   -0.3444 O   0  0  0  0  0  0  0  0  0  0  0  0
    3.0586    0.8334    0.8722 C   0  0  0  0  0  0  0  0  0  0  0  0
    2.4764    0.7126    1.9375 O   0  0  0  0  0  0  0  0  0  0  0  0
   -2.6501   -1.6943   -1.1024 H   0  0  0  0  0  0  0  0  0  0  0  0
   -1.3543   -2.3453   -0.0830 H   0  0  0  0  0  0  0  0  0  0  0  0
   -1.0867   -2.1051   -1.8190 H   0  0  0  0  0  0  0  0  0  0  0  0
   -1.3188    0.3496   -1.5419 H   0  0  0  0  0  0  0  0  0  0  0  0
   -1.5403   -0.2130    1.4647 H   0  0  0  0  0  0  0  0  0  0  0  0
   -1.5609    1.3800    0.6861 H   0  0  0  0  0  0  0  0  0  0  0  0
   -2.8885    0.2539    0.4143 H   0  0  0  0  0  0  0  0  0  0  0  0
    0.7243   -0.8622    0.4025 H   0  0  0  0  0  0  0  0  0  0  0  0
    0.9251   -0.7761   -1.3294 H   0  0  0  0  0  0  0  0  0  0  0  0
    0.7931    1.7320   -1.2334 H   0  0  0  0  0  0  0  0  0  0  0  0
    0.7025    1.6681    0.5253 H   0  0  0  0  0  0  0  0  0  0  0  0
    4.1525    0.7876    0.7554 H   0  0  0  0  0  0  0  0  0  0  0  0
  1  2  1  0
  2  3  1  0
  2  4  1  0
  4  5  1  0
  5  6  1  0
  6  7  1  0
  7  8  2  0
  1  9  1  0
  1 10  1  0
  1 11  1  0
  2 12  1  0
  3 13  1  0
  3 14  1  0
  3 15  1  0
  4 16  1  0
  4 17  1  0
  5 18  1  0
  5 19  1  0
  7 20  1  0
M  END
>  <Energy>  (3) 
-5.359557453527705

>  <Real charge>  (3) 
0

>  <Mult>  (3) 
1

$$$$
mol_794 266
     RDKit          3D

 20 19  0  0  0  0  0  0  0  0999 V2000
   -1.6962    1.0010    0.8399 C   0  0  0  0  0  0  0  0  0  0  0  0
   -1.1093   -0.2189    0.1289 C   0  0  0  0  0  0  0  0  0  0  0  0
   -2.0513   -0.6673   -0.9910 C   0  0  0  0  0  0  0  0  0  0  0  0
    0.2909    0.0539   -0.4448 C   0  0  0  0  0  0  0  0  0  0  0  0
    1.3380    0.3755    0.6202 C   0  0  0  0  0  0  0  0  0  0  0  0
    2.6252    0.5468    0.0032 O   0  0  0  0  0  0  0  0  0  0  0  0
    3.3599   -0.5829   -0.1459 C   0  0  0  0  0  0  0  0  0  0  0  0
    3.0380   -1.7145    0.1773 O   0  0  0  0  0  0  0  0  0  0  0  0
   -2.7173    0.7977    1.1806 H   0  0  0  0  0  0  0  0  0  0  0  0
   -1.1084    1.2686    1.7231 H   0  0  0  0  0  0  0  0  0  0  0  0
   -1.7292    1.8705    0.1748 H   0  0  0  0  0  0  0  0  0  0  0  0
   -1.0377   -1.0383    0.8554 H   0  0  0  0  0  0  0  0  0  0  0  0
   -1.6687   -1.5666   -1.4851 H   0  0  0  0  0  0  0  0  0  0  0  0
   -3.0442   -0.9035   -0.5937 H   0  0  0  0  0  0  0  0  0  0  0  0
   -2.1669    0.1140   -1.7501 H   0  0  0  0  0  0  0  0  0  0  0  0
    0.6245   -0.8209   -1.0176 H   0  0  0  0  0  0  0  0  0  0  0  0
    0.2529    0.8775   -1.1698 H   0  0  0  0  0  0  0  0  0  0  0  0
    1.3742   -0.3939    1.4006 H   0  0  0  0  0  0  0  0  0  0  0  0
    1.1061    1.3244    1.1136 H   0  0  0  0  0  0  0  0  0  0  0  0
    4.3194   -0.3233   -0.6194 H   0  0  0  0  0  0  0  0  0  0  0  0
  1  2  1  0
  2  3  1  0
  2  4  1  0
  4  5  1  0
  5  6  1  0
  6  7  1  0
  7  8  2  0
  1  9  1  0
  1 10  1  0
  1 11  1  0
  2 12  1  0
  3 13  1  0
  3 14  1  0
  3 15  1  0
  4 16  1  0
  4 17  1  0
  5 18  1  0
  5 19  1  0
  7 20  1  0
M  END
>  <Energy>  (4) 
-5.289614223471092

>  <Real charge>  (4) 
0

>  <Mult>  (4) 
1

$$$$
mol_794 62
     RDKit          3D

 20 19  0  0  0  0  0  0  0  0999 V2000
   -1.6851   -0.9159    1.2390 C   0  0  0  0  0  0  0  0  0  0  0  0
   -1.3875   -0.2447   -0.1017 C   0  0  0  0  0  0  0  0  0  0  0  0
   -1.7143    1.2471   -0.0365 C   0  0  0  0  0  0  0  0  0  0  0  0
    0.0505   -0.5072   -0.5797 C   0  0  0  0  0  0  0  0  0  0  0  0
    1.1553    0.0395    0.3222 C   0  0  0  0  0  0  0  0  0  0  0  0
    2.4168   -0.2965   -0.2767 O   0  0  0  0  0  0  0  0  0  0  0  0
    3.4946    0.1320    0.4255 C   0  0  0  0  0  0  0  0  0  0  0  0
    3.4803    0.7516    1.4766 O   0  0  0  0  0  0  0  0  0  0  0  0
   -1.1173   -0.4614    2.0570 H   0  0  0  0  0  0  0  0  0  0  0  0
   -1.4412   -1.9828    1.2035 H   0  0  0  0  0  0  0  0  0  0  0  0
   -2.7487   -0.8254    1.4852 H   0  0  0  0  0  0  0  0  0  0  0  0
   -2.0570   -0.6935   -0.8475 H   0  0  0  0  0  0  0  0  0  0  0  0
   -1.4914    1.7371   -0.9899 H   0  0  0  0  0  0  0  0  0  0  0  0
   -2.7787    1.3974    0.1745 H   0  0  0  0  0  0  0  0  0  0  0  0
   -1.1472    1.7543    0.7505 H   0  0  0  0  0  0  0  0  0  0  0  0
    0.1790   -0.0882   -1.5867 H   0  0  0  0  0  0  0  0  0  0  0  0
    0.1992   -1.5884   -0.7021 H   0  0  0  0  0  0  0  0  0  0  0  0
    1.1013   -0.4147    1.3172 H   0  0  0  0  0  0  0  0  0  0  0  0
    1.0805    1.1288    0.4070 H   0  0  0  0  0  0  0  0  0  0  0  0
    4.4106   -0.1690   -0.1060 H   0  0  0  0  0  0  0  0  0  0  0  0
  1  2  1  0
  2  3  1  0
  2  4  1  0
  4  5  1  0
  5  6  1  0
  6  7  1  0
  7  8  2  0
  1  9  1  0
  1 10  1  0
  1 11  1  0
  2 12  1  0
  3 13  1  0
  3 14  1  0
  3 15  1  0
  4 16  1  0
  4 17  1  0
  5 18  1  0
  5 19  1  0
  7 20  1  0
M  END
>  <Energy>  (5) 
-5.226055229504421

>  <Real charge>  (5) 
0

>  <Mult>  (5) 
1

$$$$
mol_794 271
     RDKit          3D

 20 19  0  0  0  0  0  0  0  0999 V2000
   -1.7624   -0.9023   -0.2619 C   0  0  0  0  0  0  0  0  0  0  0  0
   -0.8537    0.1707    0.3391 C   0  0  0  0  0  0  0  0  0  0  0  0
   -1.6760    1.4197    0.6677 C   0  0  0  0  0  0  0  0  0  0  0  0
    0.3106    0.5454   -0.5987 C   0  0  0  0  0  0  0  0  0  0  0  0
    1.2590   -0.6078   -0.9305 C   0  0  0  0  0  0  0  0  0  0  0  0
    1.7611   -1.2322    0.2600 O   0  0  0  0  0  0  0  0  0  0  0  0
    2.8519   -0.6480    0.8138 C   0  0  0  0  0  0  0  0  0  0  0  0
    3.4369    0.3436    0.4102 O   0  0  0  0  0  0  0  0  0  0  0  0
   -1.2292   -1.8490   -0.3906 H   0  0  0  0  0  0  0  0  0  0  0  0
   -2.1506   -0.5927   -1.2381 H   0  0  0  0  0  0  0  0  0  0  0  0
   -2.6172   -1.0992    0.3943 H   0  0  0  0  0  0  0  0  0  0  0  0
   -0.4451   -0.2142    1.2816 H   0  0  0  0  0  0  0  0  0  0  0  0
   -2.1218    1.8514   -0.2349 H   0  0  0  0  0  0  0  0  0  0  0  0
   -1.0496    2.1858    1.1369 H   0  0  0  0  0  0  0  0  0  0  0  0
   -2.4862    1.1802    1.3646 H   0  0  0  0  0  0  0  0  0  0  0  0
    0.8901    1.3443   -0.1191 H   0  0  0  0  0  0  0  0  0  0  0  0
   -0.0819    0.9597   -1.5357 H   0  0  0  0  0  0  0  0  0  0  0  0
    0.7387   -1.3804   -1.5057 H   0  0  0  0  0  0  0  0  0  0  0  0
    2.0835   -0.2594   -1.5646 H   0  0  0  0  0  0  0  0  0  0  0  0
    3.1418   -1.2155    1.7117 H   0  0  0  0  0  0  0  0  0  0  0  0
  1  2  1  0
  2  3  1  0
  2  4  1  0
  4  5  1  0
  5  6  1  0
  6  7  1  0
  7  8  2  0
  1  9  1  0
  1 10  1  0
  1 11  1  0
  2 12  1  0
  3 13  1  0
  3 14  1  0
  3 15  1  0
  4 16  1  0
  4 17  1  0
  5 18  1  0
  5 19  1  0
  7 20  1  0
M  END
>  <Energy>  (6) 
-5.132649673158603

>  <Real charge>  (6) 
0

>  <Mult>  (6) 
1

$$$$
mol_794 22
     RDKit          3D

 20 19  0  0  0  0  0  0  0  0999 V2000
   -1.5881    1.5663    0.2612 C   0  0  0  0  0  0  0  0  0  0  0  0
   -1.0086    0.5211   -0.6917 C   0  0  0  0  0  0  0  0  0  0  0  0
   -1.7363   -0.8133   -0.5287 C   0  0  0  0  0  0  0  0  0  0  0  0
    0.5155    0.3751   -0.5438 C   0  0  0  0  0  0  0  0  0  0  0  0
    1.0010   -0.0947    0.8272 C   0  0  0  0  0  0  0  0  0  0  0  0
    2.4381   -0.1597    0.8369 O   0  0  0  0  0  0  0  0  0  0  0  0
    2.9755   -1.3293    0.4104 C   0  0  0  0  0  0  0  0  0  0  0  0
    2.3708   -2.3131    0.0169 O   0  0  0  0  0  0  0  0  0  0  0  0
   -1.0619    2.5211    0.1592 H   0  0  0  0  0  0  0  0  0  0  0  0
   -1.5202    1.2471    1.3060 H   0  0  0  0  0  0  0  0  0  0  0  0
   -2.6459    1.7434    0.0383 H   0  0  0  0  0  0  0  0  0  0  0  0
   -1.1960    0.8723   -1.7151 H   0  0  0  0  0  0  0  0  0  0  0  0
   -1.6717   -1.1903    0.4969 H   0  0  0  0  0  0  0  0  0  0  0  0
   -1.3168   -1.5706   -1.1992 H   0  0  0  0  0  0  0  0  0  0  0  0
   -2.7983   -0.7030   -0.7736 H   0  0  0  0  0  0  0  0  0  0  0  0
    0.9950    1.3358   -0.7739 H   0  0  0  0  0  0  0  0  0  0  0  0
    0.8841   -0.3157   -1.3129 H   0  0  0  0  0  0  0  0  0  0  0  0
    0.7213    0.6266    1.6012 H   0  0  0  0  0  0  0  0  0  0  0  0
    0.5698   -1.0597    1.1147 H   0  0  0  0  0  0  0  0  0  0  0  0
    4.0727   -1.2593    0.4700 H   0  0  0  0  0  0  0  0  0  0  0  0
  1  2  1  0
  2  3  1  0
  2  4  1  0
  4  5  1  0
  5  6  1  0
  6  7  1  0
  7  8  2  0
  1  9  1  0
  1 10  1  0
  1 11  1  0
  2 12  1  0
  3 13  1  0
  3 14  1  0
  3 15  1  0
  4 16  1  0
  4 17  1  0
  5 18  1  0
  5 19  1  0
  7 20  1  0
M  END
>  <Energy>  (7) 
-4.864930932626235

>  <Real charge>  (7) 
0

>  <Mult>  (7) 
1

$$$$
