mol_610 71
     RDKit          3D

 20 19  0  0  0  0  0  0  0  0999 V2000
   -3.5142   -0.0480   -0.5828 C   0  0  0  0  0  0  0  0  0  0  0  0
   -2.2609   -0.6818   -0.0018 C   0  0  0  0  0  0  0  0  0  0  0  0
   -1.0272    0.1798   -0.2584 C   0  0  0  0  0  0  0  0  0  0  0  0
    0.2246   -0.4416    0.3154 C   0  0  0  0  0  0  0  0  0  0  0  0
    0.2804   -1.5038    0.9179 O   0  0  0  0  0  0  0  0  0  0  0  0
    1.2902    0.3693    0.0566 O   0  0  0  0  0  0  0  0  0  0  0  0
    2.5383   -0.1240    0.5583 C   0  0  0  0  0  0  0  0  0  0  0  0
    3.6212    0.8743    0.1981 C   0  0  0  0  0  0  0  0  0  0  0  0
   -3.4231    0.0796   -1.6662 H   0  0  0  0  0  0  0  0  0  0  0  0
   -4.3850   -0.6816   -0.3875 H   0  0  0  0  0  0  0  0  0  0  0  0
   -3.7010    0.9334   -0.1354 H   0  0  0  0  0  0  0  0  0  0  0  0
   -2.1208   -1.6764   -0.4420 H   0  0  0  0  0  0  0  0  0  0  0  0
   -2.3964   -0.8296    1.0763 H   0  0  0  0  0  0  0  0  0  0  0  0
   -1.1615    1.1649    0.2022 H   0  0  0  0  0  0  0  0  0  0  0  0
   -0.8821    0.3064   -1.3371 H   0  0  0  0  0  0  0  0  0  0  0  0
    2.4823   -0.2320    1.6473 H   0  0  0  0  0  0  0  0  0  0  0  0
    2.7629   -1.0942    0.1013 H   0  0  0  0  0  0  0  0  0  0  0  0
    3.6754    1.0094   -0.8872 H   0  0  0  0  0  0  0  0  0  0  0  0
    3.3999    1.8558    0.6304 H   0  0  0  0  0  0  0  0  0  0  0  0
    4.5968    0.5399    0.5617 H   0  0  0  0  0  0  0  0  0  0  0  0
  1  2  1  0
  2  3  1  0
  3  4  1  0
  4  5  2  0
  4  6  1  0
  6  7  1  0
  7  8  1  0
  1  9  1  0
  1 10  1  0
  1 11  1  0
  2 12  1  0
  2 13  1  0
  3 14  1  0
  3 15  1  0
  7 16  1  0
  7 17  1  0
  8 18  1  0
  8 19  1  0
  8 20  1  0
M  END
>  <Energy>  (1) 
-12.677945064802437

>  <Real charge>  (1) 
0

>  <Mult>  (1) 
1

$$$$
mol_610 191
     RDKit          3D

 20 19  0  0  0  0  0  0  0  0999 V2000
   -2.8562   -0.6639    0.7140 C   0  0  0  0  0  0  0  0  0  0  0  0
   -2.4908    0.1367   -0.5283 C   0  0  0  0  0  0  0  0  0  0  0  0
   -1.1254    0.8114   -0.4117 C   0  0  0  0  0  0  0  0  0  0  0  0
    0.0281   -0.1622   -0.4976 C   0  0  0  0  0  0  0  0  0  0  0  0
   -0.0428   -1.3155   -0.8968 O   0  0  0  0  0  0  0  0  0  0  0  0
    1.1728    0.4550   -0.0874 O   0  0  0  0  0  0  0  0  0  0  0  0
    2.3391   -0.3753   -0.1422 C   0  0  0  0  0  0  0  0  0  0  0  0
    3.5222    0.4372    0.3470 C   0  0  0  0  0  0  0  0  0  0  0  0
   -2.8658   -0.0250    1.6028 H   0  0  0  0  0  0  0  0  0  0  0  0
   -2.1504   -1.4818    0.8870 H   0  0  0  0  0  0  0  0  0  0  0  0
   -3.8541   -1.0996    0.6007 H   0  0  0  0  0  0  0  0  0  0  0  0
   -3.2533    0.9101   -0.6784 H   0  0  0  0  0  0  0  0  0  0  0  0
   -2.5224   -0.5189   -1.4061 H   0  0  0  0  0  0  0  0  0  0  0  0
   -1.0067    1.5268   -1.2333 H   0  0  0  0  0  0  0  0  0  0  0  0
   -1.0630    1.3572    0.5365 H   0  0  0  0  0  0  0  0  0  0  0  0
    2.2004   -1.2510    0.5016 H   0  0  0  0  0  0  0  0  0  0  0  0
    2.5142   -0.6989   -1.1743 H   0  0  0  0  0  0  0  0  0  0  0  0
    3.3530    0.7863    1.3710 H   0  0  0  0  0  0  0  0  0  0  0  0
    3.6612    1.3282   -0.2743 H   0  0  0  0  0  0  0  0  0  0  0  0
    4.4400   -0.1568    0.3233 H   0  0  0  0  0  0  0  0  0  0  0  0
  1  2  1  0
  2  3  1  0
  3  4  1  0
  4  5  2  0
  4  6  1  0
  6  7  1  0
  7  8  1  0
  1  9  1  0
  1 10  1  0
  1 11  1  0
  2 12  1  0
  2 13  1  0
  3 14  1  0
  3 15  1  0
  7 16  1  0
  7 17  1  0
  8 18  1  0
  8 19  1  0
  8 20  1  0
M  END
>  <Energy>  (2) 
-12.647352258110839

>  <Real charge>  (2) 
0

>  <Mult>  (2) 
1

$$$$
mol_610 2
     RDKit          3D

 20 19  0  0  0  0  0  0  0  0999 V2000
   -2.6412    0.8238    0.2016 C   0  0  0  0  0  0  0  0  0  0  0  0
   -1.8457    0.2060   -0.9394 C   0  0  0  0  0  0  0  0  0  0  0  0
   -1.1937   -1.1164   -0.5509 C   0  0  0  0  0  0  0  0  0  0  0  0
   -0.0969   -0.9407    0.4688 C   0  0  0  0  0  0  0  0  0  0  0  0
   -0.1785   -1.3039    1.6342 O   0  0  0  0  0  0  0  0  0  0  0  0
    0.9823   -0.3293   -0.0921 O   0  0  0  0  0  0  0  0  0  0  0  0
    2.0718   -0.1164    0.8131 C   0  0  0  0  0  0  0  0  0  0  0  0
    3.1869    0.5783    0.0563 C   0  0  0  0  0  0  0  0  0  0  0  0
   -1.9942    1.0791    1.0465 H   0  0  0  0  0  0  0  0  0  0  0  0
   -3.4168    0.1375    0.5561 H   0  0  0  0  0  0  0  0  0  0  0  0
   -3.1309    1.7431   -0.1353 H   0  0  0  0  0  0  0  0  0  0  0  0
   -2.5227    0.0308   -1.7836 H   0  0  0  0  0  0  0  0  0  0  0  0
   -1.0886    0.9224   -1.2783 H   0  0  0  0  0  0  0  0  0  0  0  0
   -1.9378   -1.8111   -0.1441 H   0  0  0  0  0  0  0  0  0  0  0  0
   -0.7619   -1.6044   -1.4325 H   0  0  0  0  0  0  0  0  0  0  0  0
    2.4281   -1.0795    1.1955 H   0  0  0  0  0  0  0  0  0  0  0  0
    1.7425    0.5137    1.6469 H   0  0  0  0  0  0  0  0  0  0  0  0
    2.8394    1.5337   -0.3508 H   0  0  0  0  0  0  0  0  0  0  0  0
    3.5132   -0.0301   -0.7937 H   0  0  0  0  0  0  0  0  0  0  0  0
    4.0449    0.7633    0.7085 H   0  0  0  0  0  0  0  0  0  0  0  0
  1  2  1  0
  2  3  1  0
  3  4  1  0
  4  5  2  0
  4  6  1  0
  6  7  1  0
  7  8  1  0
  1  9  1  0
  1 10  1  0
  1 11  1  0
  2 12  1  0
  2 13  1  0
  3 14  1  0
  3 15  1  0
  7 16  1  0
  7 17  1  0
  8 18  1  0
  8 19  1  0
  8 20  1  0
M  END
>  <Energy>  (3) 
-12.265268124434145

>  <Real charge>  (3) 
0

>  <Mult>  (3) 
1

$$$$
mol_610 254
     RDKit          3D

 20 19  0  0  0  0  0  0  0  0999 V2000
   -3.4442   -0.4902   -0.2061 C   0  0  0  0  0  0  0  0  0  0  0  0
   -2.0814   -0.5482    0.4645 C   0  0  0  0  0  0  0  0  0  0  0  0
   -1.0394    0.2500   -0.3149 C   0  0  0  0  0  0  0  0  0  0  0  0
    0.3197    0.1987    0.3433 C   0  0  0  0  0  0  0  0  0  0  0  0
    0.5866   -0.3998    1.3751 O   0  0  0  0  0  0  0  0  0  0  0  0
    1.2050    0.9244   -0.3981 O   0  0  0  0  0  0  0  0  0  0  0  0
    2.5480    0.9742    0.1057 C   0  0  0  0  0  0  0  0  0  0  0  0
    3.3398   -0.2187   -0.3960 C   0  0  0  0  0  0  0  0  0  0  0  0
   -3.4016   -0.9067   -1.2176 H   0  0  0  0  0  0  0  0  0  0  0  0
   -3.8046    0.5412   -0.2736 H   0  0  0  0  0  0  0  0  0  0  0  0
   -4.1745   -1.0683    0.3687 H   0  0  0  0  0  0  0  0  0  0  0  0
   -2.1639   -0.1584    1.4862 H   0  0  0  0  0  0  0  0  0  0  0  0
   -1.7642   -1.5944    0.5499 H   0  0  0  0  0  0  0  0  0  0  0  0
   -0.9439   -0.1567   -1.3279 H   0  0  0  0  0  0  0  0  0  0  0  0
   -1.3488    1.2993   -0.3787 H   0  0  0  0  0  0  0  0  0  0  0  0
    2.9969    1.8987   -0.2720 H   0  0  0  0  0  0  0  0  0  0  0  0
    2.5615    1.0340    1.2000 H   0  0  0  0  0  0  0  0  0  0  0  0
    4.3808   -0.1597   -0.0660 H   0  0  0  0  0  0  0  0  0  0  0  0
    3.3177   -0.2623   -1.4898 H   0  0  0  0  0  0  0  0  0  0  0  0
    2.9104   -1.1572   -0.0313 H   0  0  0  0  0  0  0  0  0  0  0  0
  1  2  1  0
  2  3  1  0
  3  4  1  0
  4  5  2  0
  4  6  1  0
  6  7  1  0
  7  8  1  0
  1  9  1  0
  1 10  1  0
  1 11  1  0
  2 12  1  0
  2 13  1  0
  3 14  1  0
  3 15  1  0
  7 16  1  0
  7 17  1  0
  8 18  1  0
  8 19  1  0
  8 20  1  0
M  END
>  <Energy>  (4) 
-12.241682425071978

>  <Real charge>  (4) 
0

>  <Mult>  (4) 
1

$$$$
mol_610 117
     RDKit          3D

 20 19  0  0  0  0  0  0  0  0999 V2000
   -2.4452    0.4698    1.1089 C   0  0  0  0  0  0  0  0  0  0  0  0
   -2.3941   -0.3695   -0.1603 C   0  0  0  0  0  0  0  0  0  0  0  0
   -1.1797   -0.0472   -1.0288 C   0  0  0  0  0  0  0  0  0  0  0  0
    0.1206   -0.5448   -0.4390 C   0  0  0  0  0  0  0  0  0  0  0  0
    0.2227   -1.3780    0.4495 O   0  0  0  0  0  0  0  0  0  0  0  0
    1.1647    0.0615   -1.0729 O   0  0  0  0  0  0  0  0  0  0  0  0
    2.4738   -0.3251   -0.6295 C   0  0  0  0  0  0  0  0  0  0  0  0
    2.8934    0.5169    0.5608 C   0  0  0  0  0  0  0  0  0  0  0  0
   -3.3470    0.2312    1.6816 H   0  0  0  0  0  0  0  0  0  0  0  0
   -2.4689    1.5381    0.8712 H   0  0  0  0  0  0  0  0  0  0  0  0
   -1.5797    0.2804    1.7509 H   0  0  0  0  0  0  0  0  0  0  0  0
   -2.4055   -1.4327    0.1059 H   0  0  0  0  0  0  0  0  0  0  0  0
   -3.3034   -0.1750   -0.7412 H   0  0  0  0  0  0  0  0  0  0  0  0
   -1.1129    1.0361   -1.1808 H   0  0  0  0  0  0  0  0  0  0  0  0
   -1.2970   -0.5284   -2.0062 H   0  0  0  0  0  0  0  0  0  0  0  0
    2.5167   -1.3959   -0.3995 H   0  0  0  0  0  0  0  0  0  0  0  0
    3.1593   -0.1484   -1.4649 H   0  0  0  0  0  0  0  0  0  0  0  0
    2.8466    1.5825    0.3134 H   0  0  0  0  0  0  0  0  0  0  0  0
    3.9131    0.2706    0.8698 H   0  0  0  0  0  0  0  0  0  0  0  0
    2.2226    0.3579    1.4110 H   0  0  0  0  0  0  0  0  0  0  0  0
  1  2  1  0
  2  3  1  0
  3  4  1  0
  4  5  2  0
  4  6  1  0
  6  7  1  0
  7  8  1  0
  1  9  1  0
  1 10  1  0
  1 11  1  0
  2 12  1  0
  2 13  1  0
  3 14  1  0
  3 15  1  0
  7 16  1  0
  7 17  1  0
  8 18  1  0
  8 19  1  0
  8 20  1  0
M  END
>  <Energy>  (5) 
-12.239382794978487

>  <Real charge>  (5) 
0

>  <Mult>  (5) 
1

$$$$
mol_610 40
     RDKit          3D

 20 19  0  0  0  0  0  0  0  0999 V2000
    2.9804    0.2388    0.3322 C   0  0  0  0  0  0  0  0  0  0  0  0
    2.2436   -0.1498   -0.9422 C   0  0  0  0  0  0  0  0  0  0  0  0
    0.8662    0.5020   -1.0465 C   0  0  0  0  0  0  0  0  0  0  0  0
   -0.1443   -0.0852   -0.0871 C   0  0  0  0  0  0  0  0  0  0  0  0
   -0.0174   -1.1388    0.5196 O   0  0  0  0  0  0  0  0  0  0  0  0
   -1.2363    0.7297   -0.0289 O   0  0  0  0  0  0  0  0  0  0  0  0
   -2.2936    0.2959    0.8392 C   0  0  0  0  0  0  0  0  0  0  0  0
   -3.2282   -0.6415    0.0979 C   0  0  0  0  0  0  0  0  0  0  0  0
    3.9733   -0.2218    0.3480 H   0  0  0  0  0  0  0  0  0  0  0  0
    2.4419   -0.0932    1.2248 H   0  0  0  0  0  0  0  0  0  0  0  0
    3.1106    1.3240    0.3937 H   0  0  0  0  0  0  0  0  0  0  0  0
    2.1578   -1.2413   -0.9945 H   0  0  0  0  0  0  0  0  0  0  0  0
    2.8477    0.1655   -1.8011 H   0  0  0  0  0  0  0  0  0  0  0  0
    0.9522    1.5786   -0.8609 H   0  0  0  0  0  0  0  0  0  0  0  0
    0.4746    0.3539   -2.0592 H   0  0  0  0  0  0  0  0  0  0  0  0
   -1.8972   -0.1688    1.7493 H   0  0  0  0  0  0  0  0  0  0  0  0
   -2.8410    1.1923    1.1487 H   0  0  0  0  0  0  0  0  0  0  0  0
   -3.6165   -0.1613   -0.8063 H   0  0  0  0  0  0  0  0  0  0  0  0
   -2.7037   -1.5471   -0.2228 H   0  0  0  0  0  0  0  0  0  0  0  0
   -4.0701   -0.9318    0.7327 H   0  0  0  0  0  0  0  0  0  0  0  0
  1  2  1  0
  2  3  1  0
  3  4  1  0
  4  5  2  0
  4  6  1  0
  6  7  1  0
  7  8  1  0
  1  9  1  0
  1 10  1  0
  1 11  1  0
  2 12  1  0
  2 13  1  0
  3 14  1  0
  3 15  1  0
  7 16  1  0
  7 17  1  0
  8 18  1  0
  8 19  1  0
  8 20  1  0
M  END
>  <Energy>  (6) 
-12.209021841209658

>  <Real charge>  (6) 
0

>  <Mult>  (6) 
1

$$$$
mol_610 123
     RDKit          3D

 20 19  0  0  0  0  0  0  0  0999 V2000
    3.2512    0.6381    0.1783 C   0  0  0  0  0  0  0  0  0  0  0  0
    1.8652    0.3792   -0.3882 C   0  0  0  0  0  0  0  0  0  0  0  0
    1.1846   -0.7888    0.3128 C   0  0  0  0  0  0  0  0  0  0  0  0
   -0.1734   -1.0503   -0.2840 C   0  0  0  0  0  0  0  0  0  0  0  0
   -0.4028   -1.9152   -1.1181 O   0  0  0  0  0  0  0  0  0  0  0  0
   -1.0895   -0.1798    0.2222 O   0  0  0  0  0  0  0  0  0  0  0  0
   -2.4109   -0.3471   -0.3050 C   0  0  0  0  0  0  0  0  0  0  0  0
   -3.3131    0.6850    0.3428 C   0  0  0  0  0  0  0  0  0  0  0  0
    3.2000    0.8801    1.2447 H   0  0  0  0  0  0  0  0  0  0  0  0
    3.7211    1.4804   -0.3390 H   0  0  0  0  0  0  0  0  0  0  0  0
    3.8954   -0.2383    0.0549 H   0  0  0  0  0  0  0  0  0  0  0  0
    1.9435    0.1751   -1.4629 H   0  0  0  0  0  0  0  0  0  0  0  0
    1.2568    1.2857   -0.2853 H   0  0  0  0  0  0  0  0  0  0  0  0
    1.0727   -0.6040    1.3874 H   0  0  0  0  0  0  0  0  0  0  0  0
    1.7798   -1.7041    0.2136 H   0  0  0  0  0  0  0  0  0  0  0  0
   -2.3978   -0.1975   -1.3904 H   0  0  0  0  0  0  0  0  0  0  0  0
   -2.7760   -1.3544   -0.0749 H   0  0  0  0  0  0  0  0  0  0  0  0
   -2.9487    1.6974    0.1394 H   0  0  0  0  0  0  0  0  0  0  0  0
   -3.3205    0.5619    1.4309 H   0  0  0  0  0  0  0  0  0  0  0  0
   -4.3375    0.5966   -0.0297 H   0  0  0  0  0  0  0  0  0  0  0  0
  1  2  1  0
  2  3  1  0
  3  4  1  0
  4  5  2  0
  4  6  1  0
  6  7  1  0
  7  8  1  0
  1  9  1  0
  1 10  1  0
  1 11  1  0
  2 12  1  0
  2 13  1  0
  3 14  1  0
  3 15  1  0
  7 16  1  0
  7 17  1  0
  8 18  1  0
  8 19  1  0
  8 20  1  0
M  END
>  <Energy>  (7) 
-12.061001615732602

>  <Real charge>  (7) 
0

>  <Mult>  (7) 
1

$$$$
mol_610 131
     RDKit          3D

 20 19  0  0  0  0  0  0  0  0999 V2000
   -2.1678    1.1890   -0.0027 C   0  0  0  0  0  0  0  0  0  0  0  0
   -1.9744   -0.1947   -0.6065 C   0  0  0  0  0  0  0  0  0  0  0  0
   -1.2853   -1.1616    0.3504 C   0  0  0  0  0  0  0  0  0  0  0  0
    0.1473   -0.7781    0.6234 C   0  0  0  0  0  0  0  0  0  0  0  0
    0.5474   -0.3460    1.6955 O   0  0  0  0  0  0  0  0  0  0  0  0
    0.9119   -0.9789   -0.4848 O   0  0  0  0  0  0  0  0  0  0  0  0
    2.2985   -0.6330   -0.3567 C   0  0  0  0  0  0  0  0  0  0  0  0
    2.4989    0.8398   -0.6615 C   0  0  0  0  0  0  0  0  0  0  0  0
   -2.7101    1.8326   -0.7026 H   0  0  0  0  0  0  0  0  0  0  0  0
   -2.7459    1.1350    0.9253 H   0  0  0  0  0  0  0  0  0  0  0  0
   -1.2076    1.6663    0.2162 H   0  0  0  0  0  0  0  0  0  0  0  0
   -2.9569   -0.6018   -0.8722 H   0  0  0  0  0  0  0  0  0  0  0  0
   -1.4027   -0.1031   -1.5372 H   0  0  0  0  0  0  0  0  0  0  0  0
   -1.8203   -1.2079    1.3060 H   0  0  0  0  0  0  0  0  0  0  0  0
   -1.2925   -2.1780   -0.0601 H   0  0  0  0  0  0  0  0  0  0  0  0
    2.8478   -1.2378   -1.0856 H   0  0  0  0  0  0  0  0  0  0  0  0
    2.6851   -0.8944    0.6350 H   0  0  0  0  0  0  0  0  0  0  0  0
    3.5598    1.1027   -0.6247 H   0  0  0  0  0  0  0  0  0  0  0  0
    1.9583    1.4666    0.0547 H   0  0  0  0  0  0  0  0  0  0  0  0
    2.1085    1.0831   -1.6552 H   0  0  0  0  0  0  0  0  0  0  0  0
  1  2  1  0
  2  3  1  0
  3  4  1  0
  4  5  2  0
  4  6  1  0
  6  7  1  0
  7  8  1  0
  1  9  1  0
  1 10  1  0
  1 11  1  0
  2 12  1  0
  2 13  1  0
  3 14  1  0
  3 15  1  0
  7 16  1  0
  7 17  1  0
  8 18  1  0
  8 19  1  0
  8 20  1  0
M  END
>  <Energy>  (8) 
-11.94059962015601

>  <Real charge>  (8) 
0

>  <Mult>  (8) 
1

$$$$
mol_610 5
     RDKit          3D

 20 19  0  0  0  0  0  0  0  0999 V2000
   -2.7678    0.6564   -0.4215 C   0  0  0  0  0  0  0  0  0  0  0  0
   -2.0969   -0.1198    0.7027 C   0  0  0  0  0  0  0  0  0  0  0  0
   -1.0674   -1.1211    0.1907 C   0  0  0  0  0  0  0  0  0  0  0  0
    0.1384   -0.4484   -0.4157 C   0  0  0  0  0  0  0  0  0  0  0  0
    0.3878   -0.4413   -1.6132 O   0  0  0  0  0  0  0  0  0  0  0  0
    0.8946    0.1348    0.5545 O   0  0  0  0  0  0  0  0  0  0  0  0
    2.0708    0.8203    0.1009 C   0  0  0  0  0  0  0  0  0  0  0  0
    3.2336   -0.1484   -0.0043 C   0  0  0  0  0  0  0  0  0  0  0  0
   -3.5318    1.3257   -0.0132 H   0  0  0  0  0  0  0  0  0  0  0  0
   -3.2549   -0.0211   -1.1299 H   0  0  0  0  0  0  0  0  0  0  0  0
   -2.0451    1.2680   -0.9704 H   0  0  0  0  0  0  0  0  0  0  0  0
   -1.6315    0.5872    1.3992 H   0  0  0  0  0  0  0  0  0  0  0  0
   -2.8678   -0.6618    1.2627 H   0  0  0  0  0  0  0  0  0  0  0  0
   -1.5106   -1.7835   -0.5618 H   0  0  0  0  0  0  0  0  0  0  0  0
   -0.7213   -1.7661    1.0069 H   0  0  0  0  0  0  0  0  0  0  0  0
    2.2993    1.5899    0.8455 H   0  0  0  0  0  0  0  0  0  0  0  0
    1.8904    1.3360   -0.8493 H   0  0  0  0  0  0  0  0  0  0  0  0
    4.1495    0.3749   -0.2928 H   0  0  0  0  0  0  0  0  0  0  0  0
    3.0293   -0.9289   -0.7440 H   0  0  0  0  0  0  0  0  0  0  0  0
    3.4014   -0.6529    0.9530 H   0  0  0  0  0  0  0  0  0  0  0  0
  1  2  1  0
  2  3  1  0
  3  4  1  0
  4  5  2  0
  4  6  1  0
  6  7  1  0
  7  8  1  0
  1  9  1  0
  1 10  1  0
  1 11  1  0
  2 12  1  0
  2 13  1  0
  3 14  1  0
  3 15  1  0
  7 16  1  0
  7 17  1  0
  8 18  1  0
  8 19  1  0
  8 20  1  0
M  END
>  <Energy>  (9) 
-11.797910032849629

>  <Real charge>  (9) 
0

>  <Mult>  (9) 
1

$$$$
