mol_284 143
     RDKit          3D

 21 21  0  0  0  0  0  0  0  0999 V2000
   -2.3698   -0.9531    0.2284 C   0  0  0  0  0  0  0  0  0  0  0  0
   -1.5656   -0.1358   -0.7721 C   0  0  0  0  0  0  0  0  0  0  0  0
   -0.0853   -0.1642   -0.4653 C   0  0  0  0  0  0  0  0  0  0  0  0
    0.6842   -1.2213   -0.9834 C   0  0  0  0  0  0  0  0  0  0  0  0
    2.0517   -1.3075   -0.7258 C   0  0  0  0  0  0  0  0  0  0  0  0
    2.6709   -0.3393    0.0560 C   0  0  0  0  0  0  0  0  0  0  0  0
    1.9218    0.7124    0.5831 C   0  0  0  0  0  0  0  0  0  0  0  0
    0.5417    0.8106    0.3385 C   0  0  0  0  0  0  0  0  0  0  0  0
   -0.2178    1.9700    0.9228 C   0  0  0  0  0  0  0  0  0  0  0  0
   -2.2445   -0.5742    1.2479 H   0  0  0  0  0  0  0  0  0  0  0  0
   -3.4350   -0.9123   -0.0202 H   0  0  0  0  0  0  0  0  0  0  0  0
   -2.0613   -2.0041    0.2220 H   0  0  0  0  0  0  0  0  0  0  0  0
   -1.7344   -0.5285   -1.7828 H   0  0  0  0  0  0  0  0  0  0  0  0
   -1.9357    0.8949   -0.7966 H   0  0  0  0  0  0  0  0  0  0  0  0
    0.2152   -1.9886   -1.5959 H   0  0  0  0  0  0  0  0  0  0  0  0
    2.6315   -2.1298   -1.1359 H   0  0  0  0  0  0  0  0  0  0  0  0
    3.7368   -0.4014    0.2573 H   0  0  0  0  0  0  0  0  0  0  0  0
    2.4256    1.4603    1.1919 H   0  0  0  0  0  0  0  0  0  0  0  0
   -0.5464    2.6454    0.1268 H   0  0  0  0  0  0  0  0  0  0  0  0
    0.4029    2.5483    1.6157 H   0  0  0  0  0  0  0  0  0  0  0  0
   -1.0865    1.6182    1.4874 H   0  0  0  0  0  0  0  0  0  0  0  0
  1  2  1  0
  2  3  1  0
  3  4  2  0
  4  5  1  0
  5  6  2  0
  6  7  1  0
  7  8  2  0
  8  9  1  0
  8  3  1  0
  1 10  1  0
  1 11  1  0
  1 12  1  0
  2 13  1  0
  2 14  1  0
  4 15  1  0
  5 16  1  0
  6 17  1  0
  7 18  1  0
  9 19  1  0
  9 20  1  0
  9 21  1  0
M  END
>  <Energy>  (1) 
21.984988214663105

>  <Real charge>  (1) 
0

>  <Mult>  (1) 
1

$$$$
