mol_803 388
     RDKit          3D

 18 17  0  0  0  0  0  0  0  0999 V2000
   -1.6659    1.3663   -0.7120 O   0  0  0  0  0  0  0  0  0  0  0  0
   -1.9394    0.2716    0.1610 C   0  0  0  0  0  0  0  0  0  0  0  0
   -0.8781   -0.8151   -0.0017 C   0  0  0  0  0  0  0  0  0  0  0  0
   -0.7211   -1.0883   -1.4068 O   0  0  0  0  0  0  0  0  0  0  0  0
    0.4897   -0.4669    0.6047 C   0  0  0  0  0  0  0  0  0  0  0  0
    1.3789   -1.5676    0.3118 O   0  0  0  0  0  0  0  0  0  0  0  0
    1.1413    0.8109    0.0672 C   0  0  0  0  0  0  0  0  0  0  0  0
    2.4693    0.8852    0.6051 O   0  0  0  0  0  0  0  0  0  0  0  0
   -1.5250    0.9495   -1.5878 H   0  0  0  0  0  0  0  0  0  0  0  0
   -1.9917    0.6376    1.1904 H   0  0  0  0  0  0  0  0  0  0  0  0
   -2.9235   -0.1186   -0.1193 H   0  0  0  0  0  0  0  0  0  0  0  0
   -1.2381   -1.7426    0.4594 H   0  0  0  0  0  0  0  0  0  0  0  0
    0.0412   -1.7039   -1.4466 H   0  0  0  0  0  0  0  0  0  0  0  0
    0.4143   -0.4072    1.6966 H   0  0  0  0  0  0  0  0  0  0  0  0
    2.2674   -1.2229    0.5451 H   0  0  0  0  0  0  0  0  0  0  0  0
    1.2332    0.7858   -1.0228 H   0  0  0  0  0  0  0  0  0  0  0  0
    0.5975    1.7061    0.3788 H   0  0  0  0  0  0  0  0  0  0  0  0
    2.8499    1.7201    0.2770 H   0  0  0  0  0  0  0  0  0  0  0  0
  1  2  1  0
  2  3  1  0
  3  4  1  0
  3  5  1  0
  5  6  1  0
  5  7  1  0
  7  8  1  0
  1  9  1  0
  2 10  1  0
  2 11  1  0
  3 12  1  0
  4 13  1  0
  5 14  1  0
  6 15  1  0
  7 16  1  0
  7 17  1  0
  8 18  1  0
M  END
>  <Energy>  (1) 
51.42111907233247

>  <Real charge>  (1) 
0

>  <Mult>  (1) 
1

$$$$
mol_803 545
     RDKit          3D

 18 17  0  0  0  0  0  0  0  0999 V2000
   -2.2508   -0.2668    0.4142 O   0  0  0  0  0  0  0  0  0  0  0  0
   -1.4642   -0.1419   -0.7722 C   0  0  0  0  0  0  0  0  0  0  0  0
   -0.2300    0.7065   -0.4642 C   0  0  0  0  0  0  0  0  0  0  0  0
   -0.6663    2.0139   -0.0293 O   0  0  0  0  0  0  0  0  0  0  0  0
    0.6648    0.1427    0.6556 C   0  0  0  0  0  0  0  0  0  0  0  0
    1.8026    1.0218    0.7869 O   0  0  0  0  0  0  0  0  0  0  0  0
    1.1945   -1.2637    0.3820 C   0  0  0  0  0  0  0  0  0  0  0  0
    1.9015   -1.2881   -0.8574 O   0  0  0  0  0  0  0  0  0  0  0  0
   -3.0378   -0.7890    0.1731 H   0  0  0  0  0  0  0  0  0  0  0  0
   -2.0851    0.3580   -1.5229 H   0  0  0  0  0  0  0  0  0  0  0  0
   -1.1992   -1.1385   -1.1350 H   0  0  0  0  0  0  0  0  0  0  0  0
    0.3540    0.8678   -1.3768 H   0  0  0  0  0  0  0  0  0  0  0  0
   -1.4197    1.8433    0.5724 H   0  0  0  0  0  0  0  0  0  0  0  0
    0.1441    0.1658    1.6195 H   0  0  0  0  0  0  0  0  0  0  0  0
    1.4258    1.9252    0.7490 H   0  0  0  0  0  0  0  0  0  0  0  0
    1.8979   -1.5687    1.1639 H   0  0  0  0  0  0  0  0  0  0  0  0
    0.3899   -2.0024    0.3379 H   0  0  0  0  0  0  0  0  0  0  0  0
    2.5779   -0.5860   -0.7719 H   0  0  0  0  0  0  0  0  0  0  0  0
  1  2  1  0
  2  3  1  0
  3  4  1  0
  3  5  1  0
  5  6  1  0
  5  7  1  0
  7  8  1  0
  1  9  1  0
  2 10  1  0
  2 11  1  0
  3 12  1  0
  4 13  1  0
  5 14  1  0
  6 15  1  0
  7 16  1  0
  7 17  1  0
  8 18  1  0
M  END
>  <Energy>  (2) 
51.505095374148546

>  <Real charge>  (2) 
0

>  <Mult>  (2) 
1

$$$$
mol_803 649
     RDKit          3D

 18 17  0  0  0  0  0  0  0  0999 V2000
   -1.0538   -2.0255    0.8379 O   0  0  0  0  0  0  0  0  0  0  0  0
   -1.5157   -1.1306   -0.1709 C   0  0  0  0  0  0  0  0  0  0  0  0
   -1.0407    0.2905    0.1268 C   0  0  0  0  0  0  0  0  0  0  0  0
   -1.6380    0.7030    1.3724 O   0  0  0  0  0  0  0  0  0  0  0  0
    0.4818    0.4279    0.2711 C   0  0  0  0  0  0  0  0  0  0  0  0
    0.7627    1.8153    0.5602 O   0  0  0  0  0  0  0  0  0  0  0  0
    1.2614    0.0235   -0.9800 C   0  0  0  0  0  0  0  0  0  0  0  0
    2.6371    0.3621   -0.7769 O   0  0  0  0  0  0  0  0  0  0  0  0
   -1.3568   -1.6323    1.6814 H   0  0  0  0  0  0  0  0  0  0  0  0
   -1.1547   -1.4848   -1.1403 H   0  0  0  0  0  0  0  0  0  0  0  0
   -2.6098   -1.1780   -0.1729 H   0  0  0  0  0  0  0  0  0  0  0  0
   -1.4150    0.9772   -0.6410 H   0  0  0  0  0  0  0  0  0  0  0  0
   -1.1682    1.5316    1.6046 H   0  0  0  0  0  0  0  0  0  0  0  0
    0.8463   -0.1278    1.1429 H   0  0  0  0  0  0  0  0  0  0  0  0
    1.7340    1.8898    0.4468 H   0  0  0  0  0  0  0  0  0  0  0  0
    0.9136    0.5797   -1.8562 H   0  0  0  0  0  0  0  0  0  0  0  0
    1.1894   -1.0507   -1.1714 H   0  0  0  0  0  0  0  0  0  0  0  0
    3.1264    0.0292   -1.5506 H   0  0  0  0  0  0  0  0  0  0  0  0
  1  2  1  0
  2  3  1  0
  3  4  1  0
  3  5  1  0
  5  6  1  0
  5  7  1  0
  7  8  1  0
  1  9  1  0
  2 10  1  0
  2 11  1  0
  3 12  1  0
  4 13  1  0
  5 14  1  0
  6 15  1  0
  7 16  1  0
  7 17  1  0
  8 18  1  0
M  END
>  <Energy>  (3) 
51.526059890731375

>  <Real charge>  (3) 
0

>  <Mult>  (3) 
1

$$$$
mol_803 270
     RDKit          3D

 18 17  0  0  0  0  0  0  0  0999 V2000
   -2.3796   -1.5300    1.2791 O   0  0  0  0  0  0  0  0  0  0  0  0
   -1.0123   -1.1586    1.1047 C   0  0  0  0  0  0  0  0  0  0  0  0
   -0.9380    0.0978    0.2385 C   0  0  0  0  0  0  0  0  0  0  0  0
   -1.7152    1.1232    0.8911 O   0  0  0  0  0  0  0  0  0  0  0  0
    0.4889    0.6164    0.0352 C   0  0  0  0  0  0  0  0  0  0  0  0
    0.4003    1.8699   -0.6743 O   0  0  0  0  0  0  0  0  0  0  0  0
    1.3769   -0.3345   -0.7687 C   0  0  0  0  0  0  0  0  0  0  0  0
    2.6363    0.3091   -0.9812 O   0  0  0  0  0  0  0  0  0  0  0  0
   -2.8422   -0.6906    1.4817 H   0  0  0  0  0  0  0  0  0  0  0  0
   -0.4900   -2.0029    0.6480 H   0  0  0  0  0  0  0  0  0  0  0  0
   -0.5945   -0.9768    2.1002 H   0  0  0  0  0  0  0  0  0  0  0  0
   -1.4309   -0.0748   -0.7254 H   0  0  0  0  0  0  0  0  0  0  0  0
   -1.4588    1.9507    0.4312 H   0  0  0  0  0  0  0  0  0  0  0  0
    0.9551    0.8562    0.9981 H   0  0  0  0  0  0  0  0  0  0  0  0
    1.3237    2.0658   -0.9385 H   0  0  0  0  0  0  0  0  0  0  0  0
    0.9417   -0.5394   -1.7519 H   0  0  0  0  0  0  0  0  0  0  0  0
    1.5520   -1.2740   -0.2380 H   0  0  0  0  0  0  0  0  0  0  0  0
    3.1866   -0.3075   -1.4973 H   0  0  0  0  0  0  0  0  0  0  0  0
  1  2  1  0
  2  3  1  0
  3  4  1  0
  3  5  1  0
  5  6  1  0
  5  7  1  0
  7  8  1  0
  1  9  1  0
  2 10  1  0
  2 11  1  0
  3 12  1  0
  4 13  1  0
  5 14  1  0
  6 15  1  0
  7 16  1  0
  7 17  1  0
  8 18  1  0
M  END
>  <Energy>  (4) 
51.89207031263231

>  <Real charge>  (4) 
0

>  <Mult>  (4) 
1

$$$$
mol_803 39
     RDKit          3D

 18 17  0  0  0  0  0  0  0  0999 V2000
   -2.9376    0.1225   -0.3919 O   0  0  0  0  0  0  0  0  0  0  0  0
   -1.6702   -0.4862   -0.6587 C   0  0  0  0  0  0  0  0  0  0  0  0
   -0.5799    0.4165   -0.0738 C   0  0  0  0  0  0  0  0  0  0  0  0
   -0.8244    0.5491    1.3384 O   0  0  0  0  0  0  0  0  0  0  0  0
    0.8204   -0.1680   -0.2805 C   0  0  0  0  0  0  0  0  0  0  0  0
    0.9477   -1.3950    0.4631 O   0  0  0  0  0  0  0  0  0  0  0  0
    1.9194    0.7820    0.2058 C   0  0  0  0  0  0  0  0  0  0  0  0
    3.1963    0.1957   -0.0566 O   0  0  0  0  0  0  0  0  0  0  0  0
   -3.6151   -0.4663   -0.7708 H   0  0  0  0  0  0  0  0  0  0  0  0
   -1.6742   -1.4704   -0.1798 H   0  0  0  0  0  0  0  0  0  0  0  0
   -1.5536   -0.6007   -1.7405 H   0  0  0  0  0  0  0  0  0  0  0  0
   -0.6538    1.4187   -0.5112 H   0  0  0  0  0  0  0  0  0  0  0  0
   -1.7814    0.7529    1.4016 H   0  0  0  0  0  0  0  0  0  0  0  0
    0.9903   -0.4147   -1.3344 H   0  0  0  0  0  0  0  0  0  0  0  0
    0.5716   -1.1931    1.3457 H   0  0  0  0  0  0  0  0  0  0  0  0
    1.8733    1.7450   -0.3108 H   0  0  0  0  0  0  0  0  0  0  0  0
    1.8579    0.9518    1.2854 H   0  0  0  0  0  0  0  0  0  0  0  0
    3.1130   -0.7397    0.2159 H   0  0  0  0  0  0  0  0  0  0  0  0
  1  2  1  0
  2  3  1  0
  3  4  1  0
  3  5  1  0
  5  6  1  0
  5  7  1  0
  7  8  1  0
  1  9  1  0
  2 10  1  0
  2 11  1  0
  3 12  1  0
  4 13  1  0
  5 14  1  0
  6 15  1  0
  7 16  1  0
  7 17  1  0
  8 18  1  0
M  END
>  <Energy>  (5) 
52.08680496347823

>  <Real charge>  (5) 
0

>  <Mult>  (5) 
1

$$$$
mol_803 577
     RDKit          3D

 18 17  0  0  0  0  0  0  0  0999 V2000
   -2.6297    0.3529   -0.8806 O   0  0  0  0  0  0  0  0  0  0  0  0
   -1.2513   -0.0340   -0.8513 C   0  0  0  0  0  0  0  0  0  0  0  0
   -0.6658    0.4100    0.4934 C   0  0  0  0  0  0  0  0  0  0  0  0
   -0.8687    1.8335    0.6069 O   0  0  0  0  0  0  0  0  0  0  0  0
    0.8355    0.1427    0.6476 C   0  0  0  0  0  0  0  0  0  0  0  0
    1.5643    0.8720   -0.3580 O   0  0  0  0  0  0  0  0  0  0  0  0
    1.2147   -1.3331    0.5358 C   0  0  0  0  0  0  0  0  0  0  0  0
    2.6192   -1.4780    0.7484 O   0  0  0  0  0  0  0  0  0  0  0  0
   -2.9788    0.0799   -1.7483 H   0  0  0  0  0  0  0  0  0  0  0  0
   -0.7539    0.4670   -1.6876 H   0  0  0  0  0  0  0  0  0  0  0  0
   -1.1952   -1.1180   -0.9810 H   0  0  0  0  0  0  0  0  0  0  0  0
   -1.2224   -0.0552    1.3150 H   0  0  0  0  0  0  0  0  0  0  0  0
   -1.8056    1.9667    0.3512 H   0  0  0  0  0  0  0  0  0  0  0  0
    1.1867    0.5409    1.6073 H   0  0  0  0  0  0  0  0  0  0  0  0
    1.2240    1.7883   -0.2855 H   0  0  0  0  0  0  0  0  0  0  0  0
    0.6894   -1.9387    1.2797 H   0  0  0  0  0  0  0  0  0  0  0  0
    1.0055   -1.7296   -0.4621 H   0  0  0  0  0  0  0  0  0  0  0  0
    3.0321   -0.7674    0.2172 H   0  0  0  0  0  0  0  0  0  0  0  0
  1  2  1  0
  2  3  1  0
  3  4  1  0
  3  5  1  0
  5  6  1  0
  5  7  1  0
  7  8  1  0
  1  9  1  0
  2 10  1  0
  2 11  1  0
  3 12  1  0
  4 13  1  0
  5 14  1  0
  6 15  1  0
  7 16  1  0
  7 17  1  0
  8 18  1  0
M  END
>  <Energy>  (6) 
52.1922209277997

>  <Real charge>  (6) 
0

>  <Mult>  (6) 
1

$$$$
mol_803 68
     RDKit          3D

 18 17  0  0  0  0  0  0  0  0999 V2000
    2.6719    0.1119   -0.8145 O   0  0  0  0  0  0  0  0  0  0  0  0
    1.6239   -0.1324    0.1291 C   0  0  0  0  0  0  0  0  0  0  0  0
    0.2908   -0.1594   -0.6182 C   0  0  0  0  0  0  0  0  0  0  0  0
    0.3663   -1.1494   -1.6673 O   0  0  0  0  0  0  0  0  0  0  0  0
   -0.9113   -0.5207    0.2665 C   0  0  0  0  0  0  0  0  0  0  0  0
   -2.0860   -0.5089   -0.5692 O   0  0  0  0  0  0  0  0  0  0  0  0
   -1.1497    0.4537    1.4187 C   0  0  0  0  0  0  0  0  0  0  0  0
   -1.2898    1.7804    0.9139 O   0  0  0  0  0  0  0  0  0  0  0  0
    2.6411    1.0603   -1.0379 H   0  0  0  0  0  0  0  0  0  0  0  0
    1.8302   -1.1041    0.5886 H   0  0  0  0  0  0  0  0  0  0  0  0
    1.6602    0.6422    0.9000 H   0  0  0  0  0  0  0  0  0  0  0  0
    0.1264    0.7932   -1.1350 H   0  0  0  0  0  0  0  0  0  0  0  0
    1.2819   -1.0894   -2.0112 H   0  0  0  0  0  0  0  0  0  0  0  0
   -0.8116   -1.5414    0.6526 H   0  0  0  0  0  0  0  0  0  0  0  0
   -1.8209   -1.0092   -1.3696 H   0  0  0  0  0  0  0  0  0  0  0  0
   -2.0749    0.2058    1.9494 H   0  0  0  0  0  0  0  0  0  0  0  0
   -0.3268    0.4419    2.1383 H   0  0  0  0  0  0  0  0  0  0  0  0
   -2.0216    1.7255    0.2661 H   0  0  0  0  0  0  0  0  0  0  0  0
  1  2  1  0
  2  3  1  0
  3  4  1  0
  3  5  1  0
  5  6  1  0
  5  7  1  0
  7  8  1  0
  1  9  1  0
  2 10  1  0
  2 11  1  0
  3 12  1  0
  4 13  1  0
  5 14  1  0
  6 15  1  0
  7 16  1  0
  7 17  1  0
  8 18  1  0
M  END
>  <Energy>  (7) 
52.23362529208438

>  <Real charge>  (7) 
0

>  <Mult>  (7) 
1

$$$$
mol_803 35
     RDKit          3D

 18 17  0  0  0  0  0  0  0  0999 V2000
   -2.5478   -0.0796    0.5872 O   0  0  0  0  0  0  0  0  0  0  0  0
   -1.8199   -1.1156   -0.0774 C   0  0  0  0  0  0  0  0  0  0  0  0
   -0.4899   -0.5749   -0.6225 C   0  0  0  0  0  0  0  0  0  0  0  0
   -0.7734    0.5593   -1.4541 O   0  0  0  0  0  0  0  0  0  0  0  0
    0.4785   -0.1687    0.5027 C   0  0  0  0  0  0  0  0  0  0  0  0
   -0.1645    0.7402    1.4197 O   0  0  0  0  0  0  0  0  0  0  0  0
    1.7433    0.5077   -0.0339 C   0  0  0  0  0  0  0  0  0  0  0  0
    2.5753    0.8351    1.0849 O   0  0  0  0  0  0  0  0  0  0  0  0
   -1.9148    0.3420    1.2112 H   0  0  0  0  0  0  0  0  0  0  0  0
   -2.4501   -1.4644   -0.9013 H   0  0  0  0  0  0  0  0  0  0  0  0
   -1.6631   -1.9438    0.6203 H   0  0  0  0  0  0  0  0  0  0  0  0
   -0.0143   -1.3335   -1.2534 H   0  0  0  0  0  0  0  0  0  0  0  0
   -1.4596    1.0657   -0.9713 H   0  0  0  0  0  0  0  0  0  0  0  0
    0.7523   -1.0505    1.0939 H   0  0  0  0  0  0  0  0  0  0  0  0
    0.5763    1.1159    1.9426 H   0  0  0  0  0  0  0  0  0  0  0  0
    2.2968   -0.1562   -0.7044 H   0  0  0  0  0  0  0  0  0  0  0  0
    1.5096    1.4455   -0.5473 H   0  0  0  0  0  0  0  0  0  0  0  0
    3.3651    1.2757    0.7222 H   0  0  0  0  0  0  0  0  0  0  0  0
  1  2  1  0
  2  3  1  0
  3  4  1  0
  3  5  1  0
  5  6  1  0
  5  7  1  0
  7  8  1  0
  1  9  1  0
  2 10  1  0
  2 11  1  0
  3 12  1  0
  4 13  1  0
  5 14  1  0
  6 15  1  0
  7 16  1  0
  7 17  1  0
  8 18  1  0
M  END
>  <Energy>  (8) 
52.28643421210545

>  <Real charge>  (8) 
0

>  <Mult>  (8) 
1

$$$$
