mol_179 205
     RDKit          3D

 28 27  0  0  0  0  0  0  0  0999 V2000
    5.0624    0.1751    0.2501 C   0  0  0  0  0  0  0  0  0  0  0  0
    3.7817    0.2785   -0.5628 C   0  0  0  0  0  0  0  0  0  0  0  0
    2.5461    0.0558    0.3081 C   0  0  0  0  0  0  0  0  0  0  0  0
    1.2622    0.1604   -0.5118 C   0  0  0  0  0  0  0  0  0  0  0  0
    0.0126   -0.0567    0.3276 C   0  0  0  0  0  0  0  0  0  0  0  0
    0.0644   -0.2895    1.5342 O   0  0  0  0  0  0  0  0  0  0  0  0
   -1.3054    0.0335   -0.4260 C   0  0  0  0  0  0  0  0  0  0  0  0
   -2.5153   -0.1944    0.4772 C   0  0  0  0  0  0  0  0  0  0  0  0
   -3.8220   -0.0974   -0.3087 C   0  0  0  0  0  0  0  0  0  0  0  0
   -5.0293   -0.3237    0.5873 C   0  0  0  0  0  0  0  0  0  0  0  0
    5.9333    0.3376   -0.3924 H   0  0  0  0  0  0  0  0  0  0  0  0
    5.0830    0.9257    1.0467 H   0  0  0  0  0  0  0  0  0  0  0  0
    5.1577   -0.8148    0.7078 H   0  0  0  0  0  0  0  0  0  0  0  0
    3.8073   -0.4632   -1.3697 H   0  0  0  0  0  0  0  0  0  0  0  0
    3.7330    1.2677   -1.0325 H   0  0  0  0  0  0  0  0  0  0  0  0
    2.6017   -0.9319    0.7828 H   0  0  0  0  0  0  0  0  0  0  0  0
    2.5276    0.7946    1.1190 H   0  0  0  0  0  0  0  0  0  0  0  0
    1.1917    1.1537   -0.9688 H   0  0  0  0  0  0  0  0  0  0  0  0
    1.2666   -0.5916   -1.3087 H   0  0  0  0  0  0  0  0  0  0  0  0
   -1.2887   -0.7179   -1.2233 H   0  0  0  0  0  0  0  0  0  0  0  0
   -1.3636    1.0274   -0.8834 H   0  0  0  0  0  0  0  0  0  0  0  0
   -2.5157    0.5454    1.2875 H   0  0  0  0  0  0  0  0  0  0  0  0
   -2.4416   -1.1811    0.9513 H   0  0  0  0  0  0  0  0  0  0  0  0
   -3.8281   -0.8406   -1.1146 H   0  0  0  0  0  0  0  0  0  0  0  0
   -3.9024    0.8903   -0.7775 H   0  0  0  0  0  0  0  0  0  0  0  0
   -4.9960   -1.3167    1.0470 H   0  0  0  0  0  0  0  0  0  0  0  0
   -5.0707    0.4238    1.3860 H   0  0  0  0  0  0  0  0  0  0  0  0
   -5.9529   -0.2499    0.0047 H   0  0  0  0  0  0  0  0  0  0  0  0
  1  2  1  0
  2  3  1  0
  3  4  1  0
  4  5  1  0
  5  6  2  0
  5  7  1  0
  7  8  1  0
  8  9  1  0
  9 10  1  0
  1 11  1  0
  1 12  1  0
  1 13  1  0
  2 14  1  0
  2 15  1  0
  3 16  1  0
  3 17  1  0
  4 18  1  0
  4 19  1  0
  7 20  1  0
  7 21  1  0
  8 22  1  0
  8 23  1  0
  9 24  1  0
  9 25  1  0
 10 26  1  0
 10 27  1  0
 10 28  1  0
M  END
>  <Energy>  (1) 
-1.648506216877456

>  <Real charge>  (1) 
0

>  <Mult>  (1) 
1

$$$$
mol_179 42
     RDKit          3D

 28 27  0  0  0  0  0  0  0  0999 V2000
   -4.4839    0.4914   -1.1226 C   0  0  0  0  0  0  0  0  0  0  0  0
   -3.1774    0.4764   -0.3444 C   0  0  0  0  0  0  0  0  0  0  0  0
   -2.6660   -0.9518   -0.1396 C   0  0  0  0  0  0  0  0  0  0  0  0
   -1.3659   -0.9959    0.6617 C   0  0  0  0  0  0  0  0  0  0  0  0
   -0.1456   -0.5254   -0.1168 C   0  0  0  0  0  0  0  0  0  0  0  0
   -0.1719   -0.3424   -1.3328 O   0  0  0  0  0  0  0  0  0  0  0  0
    1.1196   -0.3315    0.7047 C   0  0  0  0  0  0  0  0  0  0  0  0
    2.3026    0.1362   -0.1399 C   0  0  0  0  0  0  0  0  0  0  0  0
    3.5553    0.3255    0.7143 C   0  0  0  0  0  0  0  0  0  0  0  0
    4.7356    0.7910   -0.1233 C   0  0  0  0  0  0  0  0  0  0  0  0
   -4.8343    1.5199   -1.2549 H   0  0  0  0  0  0  0  0  0  0  0  0
   -5.2626   -0.0671   -0.5934 H   0  0  0  0  0  0  0  0  0  0  0  0
   -4.3547    0.0462   -2.1143 H   0  0  0  0  0  0  0  0  0  0  0  0
   -2.4355    1.0748   -0.8843 H   0  0  0  0  0  0  0  0  0  0  0  0
   -3.3343    0.9572    0.6282 H   0  0  0  0  0  0  0  0  0  0  0  0
   -3.4272   -1.5250    0.4039 H   0  0  0  0  0  0  0  0  0  0  0  0
   -2.5314   -1.4430   -1.1108 H   0  0  0  0  0  0  0  0  0  0  0  0
   -1.4622   -0.3854    1.5662 H   0  0  0  0  0  0  0  0  0  0  0  0
   -1.1685   -2.0297    0.9675 H   0  0  0  0  0  0  0  0  0  0  0  0
    0.9042    0.4078    1.4843 H   0  0  0  0  0  0  0  0  0  0  0  0
    1.3579   -1.2870    1.1850 H   0  0  0  0  0  0  0  0  0  0  0  0
    2.5029   -0.5958   -0.9323 H   0  0  0  0  0  0  0  0  0  0  0  0
    2.0495    1.0799   -0.6392 H   0  0  0  0  0  0  0  0  0  0  0  0
    3.8151   -0.6178    1.2087 H   0  0  0  0  0  0  0  0  0  0  0  0
    3.3609    1.0623    1.5023 H   0  0  0  0  0  0  0  0  0  0  0  0
    4.5202    1.7494   -0.6064 H   0  0  0  0  0  0  0  0  0  0  0  0
    5.6207    0.9200    0.5075 H   0  0  0  0  0  0  0  0  0  0  0  0
    4.9769    0.0601   -0.9017 H   0  0  0  0  0  0  0  0  0  0  0  0
  1  2  1  0
  2  3  1  0
  3  4  1  0
  4  5  1  0
  5  6  2  0
  5  7  1  0
  7  8  1  0
  8  9  1  0
  9 10  1  0
  1 11  1  0
  1 12  1  0
  1 13  1  0
  2 14  1  0
  2 15  1  0
  3 16  1  0
  3 17  1  0
  4 18  1  0
  4 19  1  0
  7 20  1  0
  7 21  1  0
  8 22  1  0
  8 23  1  0
  9 24  1  0
  9 25  1  0
 10 26  1  0
 10 27  1  0
 10 28  1  0
M  END
>  <Energy>  (2) 
-1.576408749873221

>  <Real charge>  (2) 
0

>  <Mult>  (2) 
1

$$$$
mol_179 58
     RDKit          3D

 28 27  0  0  0  0  0  0  0  0999 V2000
    3.7426    1.7359    0.4104 C   0  0  0  0  0  0  0  0  0  0  0  0
    2.5002    0.8889    0.6377 C   0  0  0  0  0  0  0  0  0  0  0  0
    2.6144   -0.4684   -0.0608 C   0  0  0  0  0  0  0  0  0  0  0  0
    1.3876   -1.3486    0.1733 C   0  0  0  0  0  0  0  0  0  0  0  0
    0.1504   -0.8930   -0.5870 C   0  0  0  0  0  0  0  0  0  0  0  0
    0.2071   -0.0644   -1.4943 O   0  0  0  0  0  0  0  0  0  0  0  0
   -1.1494   -1.5840   -0.2004 C   0  0  0  0  0  0  0  0  0  0  0  0
   -2.3956   -0.9333   -0.7987 C   0  0  0  0  0  0  0  0  0  0  0  0
   -2.7324    0.4033   -0.1329 C   0  0  0  0  0  0  0  0  0  0  0  0
   -3.9893    1.0185   -0.7284 C   0  0  0  0  0  0  0  0  0  0  0  0
    4.6352    1.2363    0.8001 H   0  0  0  0  0  0  0  0  0  0  0  0
    3.6429    2.6993    0.9202 H   0  0  0  0  0  0  0  0  0  0  0  0
    3.8949    1.9301   -0.6561 H   0  0  0  0  0  0  0  0  0  0  0  0
    1.6252    1.4360    0.2703 H   0  0  0  0  0  0  0  0  0  0  0  0
    2.3597    0.7411    1.7149 H   0  0  0  0  0  0  0  0  0  0  0  0
    3.4961   -0.9931    0.3274 H   0  0  0  0  0  0  0  0  0  0  0  0
    2.7787   -0.3225   -1.1352 H   0  0  0  0  0  0  0  0  0  0  0  0
    1.6080   -2.3692   -0.1596 H   0  0  0  0  0  0  0  0  0  0  0  0
    1.1517   -1.3822    1.2425 H   0  0  0  0  0  0  0  0  0  0  0  0
   -1.0778   -2.6185   -0.5551 H   0  0  0  0  0  0  0  0  0  0  0  0
   -1.2270   -1.6029    0.8922 H   0  0  0  0  0  0  0  0  0  0  0  0
   -3.2420   -1.6183   -0.6650 H   0  0  0  0  0  0  0  0  0  0  0  0
   -2.2694   -0.7909   -1.8787 H   0  0  0  0  0  0  0  0  0  0  0  0
   -2.8815    0.2548    0.9430 H   0  0  0  0  0  0  0  0  0  0  0  0
   -1.9023    1.1087   -0.2493 H   0  0  0  0  0  0  0  0  0  0  0  0
   -4.8508    0.3561   -0.5969 H   0  0  0  0  0  0  0  0  0  0  0  0
   -3.8626    1.2103   -1.7986 H   0  0  0  0  0  0  0  0  0  0  0  0
   -4.2147    1.9702   -0.2370 H   0  0  0  0  0  0  0  0  0  0  0  0
  1  2  1  0
  2  3  1  0
  3  4  1  0
  4  5  1  0
  5  6  2  0
  5  7  1  0
  7  8  1  0
  8  9  1  0
  9 10  1  0
  1 11  1  0
  1 12  1  0
  1 13  1  0
  2 14  1  0
  2 15  1  0
  3 16  1  0
  3 17  1  0
  4 18  1  0
  4 19  1  0
  7 20  1  0
  7 21  1  0
  8 22  1  0
  8 23  1  0
  9 24  1  0
  9 25  1  0
 10 26  1  0
 10 27  1  0
 10 28  1  0
M  END
>  <Energy>  (3) 
-1.5644633578402383

>  <Real charge>  (3) 
0

>  <Mult>  (3) 
1

$$$$
mol_179 229
     RDKit          3D

 28 27  0  0  0  0  0  0  0  0999 V2000
    4.4284   -0.5218   -0.1738 C   0  0  0  0  0  0  0  0  0  0  0  0
    2.9694   -0.7371   -0.5450 C   0  0  0  0  0  0  0  0  0  0  0  0
    2.3260    0.5556   -1.0530 C   0  0  0  0  0  0  0  0  0  0  0  0
    0.8650    0.3604   -1.4554 C   0  0  0  0  0  0  0  0  0  0  0  0
   -0.0843    0.2014   -0.2763 C   0  0  0  0  0  0  0  0  0  0  0  0
    0.2696    0.4034    0.8840 O   0  0  0  0  0  0  0  0  0  0  0  0
   -1.5016   -0.2247   -0.6317 C   0  0  0  0  0  0  0  0  0  0  0  0
   -2.4836   -0.1465    0.5361 C   0  0  0  0  0  0  0  0  0  0  0  0
   -2.8668    1.2947    0.8813 C   0  0  0  0  0  0  0  0  0  0  0  0
   -3.8623    1.3440    2.0299 C   0  0  0  0  0  0  0  0  0  0  0  0
    4.8707   -1.4573    0.1828 H   0  0  0  0  0  0  0  0  0  0  0  0
    5.0071   -0.1804   -1.0380 H   0  0  0  0  0  0  0  0  0  0  0  0
    4.5246    0.2244    0.6214 H   0  0  0  0  0  0  0  0  0  0  0  0
    2.4317   -1.1135    0.3319 H   0  0  0  0  0  0  0  0  0  0  0  0
    2.9073   -1.5113   -1.3187 H   0  0  0  0  0  0  0  0  0  0  0  0
    2.8829    0.9056   -1.9310 H   0  0  0  0  0  0  0  0  0  0  0  0
    2.4094    1.3392   -0.2903 H   0  0  0  0  0  0  0  0  0  0  0  0
    0.5289    1.2396   -2.0170 H   0  0  0  0  0  0  0  0  0  0  0  0
    0.7677   -0.5169   -2.1043 H   0  0  0  0  0  0  0  0  0  0  0  0
   -1.8557    0.3949   -1.4629 H   0  0  0  0  0  0  0  0  0  0  0  0
   -1.4430   -1.2623   -0.9801 H   0  0  0  0  0  0  0  0  0  0  0  0
   -2.0650   -0.6435    1.4195 H   0  0  0  0  0  0  0  0  0  0  0  0
   -3.3920   -0.6972    0.2618 H   0  0  0  0  0  0  0  0  0  0  0  0
   -3.3083    1.7814    0.0038 H   0  0  0  0  0  0  0  0  0  0  0  0
   -1.9776    1.8718    1.1570 H   0  0  0  0  0  0  0  0  0  0  0  0
   -4.1261    2.3813    2.2585 H   0  0  0  0  0  0  0  0  0  0  0  0
   -4.7822    0.8078    1.7756 H   0  0  0  0  0  0  0  0  0  0  0  0
   -3.4402    0.8936    2.9340 H   0  0  0  0  0  0  0  0  0  0  0  0
  1  2  1  0
  2  3  1  0
  3  4  1  0
  4  5  1  0
  5  6  2  0
  5  7  1  0
  7  8  1  0
  8  9  1  0
  9 10  1  0
  1 11  1  0
  1 12  1  0
  1 13  1  0
  2 14  1  0
  2 15  1  0
  3 16  1  0
  3 17  1  0
  4 18  1  0
  4 19  1  0
  7 20  1  0
  7 21  1  0
  8 22  1  0
  8 23  1  0
  9 24  1  0
  9 25  1  0
 10 26  1  0
 10 27  1  0
 10 28  1  0
M  END
>  <Energy>  (4) 
-1.4852644876707375

>  <Real charge>  (4) 
0

>  <Mult>  (4) 
1

$$$$
mol_179 260
     RDKit          3D

 28 27  0  0  0  0  0  0  0  0999 V2000
    3.3349    1.4966   -0.5049 C   0  0  0  0  0  0  0  0  0  0  0  0
    2.0635    0.8562    0.0300 C   0  0  0  0  0  0  0  0  0  0  0  0
    2.3379   -0.5365    0.6029 C   0  0  0  0  0  0  0  0  0  0  0  0
    1.0799   -1.1841    1.1787 C   0  0  0  0  0  0  0  0  0  0  0  0
    0.0766   -1.6028    0.1160 C   0  0  0  0  0  0  0  0  0  0  0  0
    0.4046   -1.8233   -1.0500 O   0  0  0  0  0  0  0  0  0  0  0  0
   -1.3621   -1.7763    0.5616 C   0  0  0  0  0  0  0  0  0  0  0  0
   -2.1040   -0.4464    0.6571 C   0  0  0  0  0  0  0  0  0  0  0  0
   -2.3401    0.1940   -0.7126 C   0  0  0  0  0  0  0  0  0  0  0  0
   -3.1298    1.4881   -0.5914 C   0  0  0  0  0  0  0  0  0  0  0  0
    3.7702    0.8928   -1.3076 H   0  0  0  0  0  0  0  0  0  0  0  0
    4.0824    1.6065    0.2872 H   0  0  0  0  0  0  0  0  0  0  0  0
    3.1179    2.4911   -0.9073 H   0  0  0  0  0  0  0  0  0  0  0  0
    1.3279    0.7974   -0.7798 H   0  0  0  0  0  0  0  0  0  0  0  0
    1.6372    1.5006    0.8077 H   0  0  0  0  0  0  0  0  0  0  0  0
    3.0823   -0.4518    1.4043 H   0  0  0  0  0  0  0  0  0  0  0  0
    2.7760   -1.1776   -0.1714 H   0  0  0  0  0  0  0  0  0  0  0  0
    0.5997   -0.4955    1.8814 H   0  0  0  0  0  0  0  0  0  0  0  0
    1.3542   -2.0894    1.7319 H   0  0  0  0  0  0  0  0  0  0  0  0
   -1.3555   -2.2777    1.5362 H   0  0  0  0  0  0  0  0  0  0  0  0
   -1.8658   -2.4545   -0.1367 H   0  0  0  0  0  0  0  0  0  0  0  0
   -3.0723   -0.6239    1.1408 H   0  0  0  0  0  0  0  0  0  0  0  0
   -1.5523    0.2530    1.2959 H   0  0  0  0  0  0  0  0  0  0  0  0
   -2.8872   -0.5014   -1.3597 H   0  0  0  0  0  0  0  0  0  0  0  0
   -1.3833    0.4089   -1.2012 H   0  0  0  0  0  0  0  0  0  0  0  0
   -4.1103    1.3088   -0.1389 H   0  0  0  0  0  0  0  0  0  0  0  0
   -3.2879    1.9295   -1.5804 H   0  0  0  0  0  0  0  0  0  0  0  0
   -2.5945    2.2177    0.0247 H   0  0  0  0  0  0  0  0  0  0  0  0
  1  2  1  0
  2  3  1  0
  3  4  1  0
  4  5  1  0
  5  6  2  0
  5  7  1  0
  7  8  1  0
  8  9  1  0
  9 10  1  0
  1 11  1  0
  1 12  1  0
  1 13  1  0
  2 14  1  0
  2 15  1  0
  3 16  1  0
  3 17  1  0
  4 18  1  0
  4 19  1  0
  7 20  1  0
  7 21  1  0
  8 22  1  0
  8 23  1  0
  9 24  1  0
  9 25  1  0
 10 26  1  0
 10 27  1  0
 10 28  1  0
M  END
>  <Energy>  (5) 
-1.1619060389179492

>  <Real charge>  (5) 
0

>  <Mult>  (5) 
1

$$$$
mol_179 151
     RDKit          3D

 28 27  0  0  0  0  0  0  0  0999 V2000
    4.4668   -0.7641    0.2431 C   0  0  0  0  0  0  0  0  0  0  0  0
    3.1602    0.0090    0.3314 C   0  0  0  0  0  0  0  0  0  0  0  0
    2.0977   -0.5823   -0.5982 C   0  0  0  0  0  0  0  0  0  0  0  0
    0.7837    0.1961   -0.5503 C   0  0  0  0  0  0  0  0  0  0  0  0
    0.0141    0.0085    0.7479 C   0  0  0  0  0  0  0  0  0  0  0  0
    0.2067   -0.9502    1.4960 O   0  0  0  0  0  0  0  0  0  0  0  0
   -1.0436    1.0453    1.0776 C   0  0  0  0  0  0  0  0  0  0  0  0
   -2.2351    1.0043    0.1258 C   0  0  0  0  0  0  0  0  0  0  0  0
   -3.0443   -0.2878    0.2552 C   0  0  0  0  0  0  0  0  0  0  0  0
   -4.2565   -0.2778   -0.6632 C   0  0  0  0  0  0  0  0  0  0  0  0
    4.3240   -1.8098    0.5336 H   0  0  0  0  0  0  0  0  0  0  0  0
    4.8682   -0.7415   -0.7751 H   0  0  0  0  0  0  0  0  0  0  0  0
    5.2132   -0.3245    0.9121 H   0  0  0  0  0  0  0  0  0  0  0  0
    3.3448    1.0563    0.0656 H   0  0  0  0  0  0  0  0  0  0  0  0
    2.8093   -0.0041    1.3692 H   0  0  0  0  0  0  0  0  0  0  0  0
    2.4754   -0.5610   -1.6280 H   0  0  0  0  0  0  0  0  0  0  0  0
    1.9254   -1.6352   -0.3447 H   0  0  0  0  0  0  0  0  0  0  0  0
    0.9791    1.2641   -0.6957 H   0  0  0  0  0  0  0  0  0  0  0  0
    0.1346   -0.1456   -1.3640 H   0  0  0  0  0  0  0  0  0  0  0  0
   -0.5670    2.0315    1.0441 H   0  0  0  0  0  0  0  0  0  0  0  0
   -1.3734    0.8903    2.1115 H   0  0  0  0  0  0  0  0  0  0  0  0
   -1.8986    1.1252   -0.9104 H   0  0  0  0  0  0  0  0  0  0  0  0
   -2.8857    1.8589    0.3487 H   0  0  0  0  0  0  0  0  0  0  0  0
   -3.3796   -0.4151    1.2910 H   0  0  0  0  0  0  0  0  0  0  0  0
   -2.4194   -1.1530    0.0070 H   0  0  0  0  0  0  0  0  0  0  0  0
   -4.8210   -1.2093   -0.5557 H   0  0  0  0  0  0  0  0  0  0  0  0
   -4.9253    0.5544   -0.4214 H   0  0  0  0  0  0  0  0  0  0  0  0
   -3.9538   -0.1828   -1.7109 H   0  0  0  0  0  0  0  0  0  0  0  0
  1  2  1  0
  2  3  1  0
  3  4  1  0
  4  5  1  0
  5  6  2  0
  5  7  1  0
  7  8  1  0
  8  9  1  0
  9 10  1  0
  1 11  1  0
  1 12  1  0
  1 13  1  0
  2 14  1  0
  2 15  1  0
  3 16  1  0
  3 17  1  0
  4 18  1  0
  4 19  1  0
  7 20  1  0
  7 21  1  0
  8 22  1  0
  8 23  1  0
  9 24  1  0
  9 25  1  0
 10 26  1  0
 10 27  1  0
 10 28  1  0
M  END
>  <Energy>  (6) 
-1.0949591211112386

>  <Real charge>  (6) 
0

>  <Mult>  (6) 
1

$$$$
mol_179 4
     RDKit          3D

 28 27  0  0  0  0  0  0  0  0999 V2000
    4.5068    0.6135   -0.3962 C   0  0  0  0  0  0  0  0  0  0  0  0
    3.1843    0.5853    0.3533 C   0  0  0  0  0  0  0  0  0  0  0  0
    2.1596   -0.3018   -0.3522 C   0  0  0  0  0  0  0  0  0  0  0  0
    0.8320   -0.3262    0.4027 C   0  0  0  0  0  0  0  0  0  0  0  0
   -0.1965   -1.2251   -0.2643 C   0  0  0  0  0  0  0  0  0  0  0  0
   -0.0251   -1.7081   -1.3838 O   0  0  0  0  0  0  0  0  0  0  0  0
   -1.4742   -1.4989    0.5075 C   0  0  0  0  0  0  0  0  0  0  0  0
   -2.3945   -0.2851    0.5878 C   0  0  0  0  0  0  0  0  0  0  0  0
   -2.9542    0.1188   -0.7777 C   0  0  0  0  0  0  0  0  0  0  0  0
   -3.9146    1.2921   -0.6590 C   0  0  0  0  0  0  0  0  0  0  0  0
    5.2248    1.2536    0.1260 H   0  0  0  0  0  0  0  0  0  0  0  0
    4.9374   -0.3903   -0.4699 H   0  0  0  0  0  0  0  0  0  0  0  0
    4.3753    1.0065   -1.4093 H   0  0  0  0  0  0  0  0  0  0  0  0
    3.3562    0.2184    1.3719 H   0  0  0  0  0  0  0  0  0  0  0  0
    2.7969    1.6073    0.4375 H   0  0  0  0  0  0  0  0  0  0  0  0
    2.5523   -1.3225   -0.4412 H   0  0  0  0  0  0  0  0  0  0  0  0
    1.9972    0.0636   -1.3739 H   0  0  0  0  0  0  0  0  0  0  0  0
    0.4183    0.6859    0.4588 H   0  0  0  0  0  0  0  0  0  0  0  0
    0.9947   -0.6954    1.4213 H   0  0  0  0  0  0  0  0  0  0  0  0
   -1.9918   -2.3418    0.0349 H   0  0  0  0  0  0  0  0  0  0  0  0
   -1.1943   -1.8281    1.5146 H   0  0  0  0  0  0  0  0  0  0  0  0
   -1.8658    0.5650    1.0341 H   0  0  0  0  0  0  0  0  0  0  0  0
   -3.2274   -0.5267    1.2596 H   0  0  0  0  0  0  0  0  0  0  0  0
   -2.1385    0.3965   -1.4547 H   0  0  0  0  0  0  0  0  0  0  0  0
   -3.4788   -0.7302   -1.2312 H   0  0  0  0  0  0  0  0  0  0  0  0
   -4.7648    1.0400   -0.0172 H   0  0  0  0  0  0  0  0  0  0  0  0
   -3.4125    2.1685   -0.2368 H   0  0  0  0  0  0  0  0  0  0  0  0
   -4.3029    1.5651   -1.6452 H   0  0  0  0  0  0  0  0  0  0  0  0
  1  2  1  0
  2  3  1  0
  3  4  1  0
  4  5  1  0
  5  6  2  0
  5  7  1  0
  7  8  1  0
  8  9  1  0
  9 10  1  0
  1 11  1  0
  1 12  1  0
  1 13  1  0
  2 14  1  0
  2 15  1  0
  3 16  1  0
  3 17  1  0
  4 18  1  0
  4 19  1  0
  7 20  1  0
  7 21  1  0
  8 22  1  0
  8 23  1  0
  9 24  1  0
  9 25  1  0
 10 26  1  0
 10 27  1  0
 10 28  1  0
M  END
>  <Energy>  (7) 
-1.0728001166273102

>  <Real charge>  (7) 
0

>  <Mult>  (7) 
1

$$$$
mol_179 275
     RDKit          3D

 28 27  0  0  0  0  0  0  0  0999 V2000
   -4.5015   -0.6603    0.8427 C   0  0  0  0  0  0  0  0  0  0  0  0
   -3.6515    0.1760   -0.1005 C   0  0  0  0  0  0  0  0  0  0  0  0
   -2.1993    0.2472    0.3687 C   0  0  0  0  0  0  0  0  0  0  0  0
   -1.3510    1.0855   -0.5801 C   0  0  0  0  0  0  0  0  0  0  0  0
    0.0750    1.1909   -0.0781 C   0  0  0  0  0  0  0  0  0  0  0  0
    0.4288    2.1462    0.6128 O   0  0  0  0  0  0  0  0  0  0  0  0
    1.0127    0.0522   -0.4448 C   0  0  0  0  0  0  0  0  0  0  0  0
    2.4316    0.2741    0.0745 C   0  0  0  0  0  0  0  0  0  0  0  0
    3.3539   -0.8795   -0.3172 C   0  0  0  0  0  0  0  0  0  0  0  0
    4.7675   -0.6624    0.1987 C   0  0  0  0  0  0  0  0  0  0  0  0
   -4.5031   -0.2344    1.8511 H   0  0  0  0  0  0  0  0  0  0  0  0
   -5.5363   -0.6975    0.4880 H   0  0  0  0  0  0  0  0  0  0  0  0
   -4.1260   -1.6867    0.9034 H   0  0  0  0  0  0  0  0  0  0  0  0
   -4.0726    1.1861   -0.1637 H   0  0  0  0  0  0  0  0  0  0  0  0
   -3.6968   -0.2582   -1.1061 H   0  0  0  0  0  0  0  0  0  0  0  0
   -2.1556    0.6756    1.3780 H   0  0  0  0  0  0  0  0  0  0  0  0
   -1.7859   -0.7659    0.4423 H   0  0  0  0  0  0  0  0  0  0  0  0
   -1.3417    0.6583   -1.5889 H   0  0  0  0  0  0  0  0  0  0  0  0
   -1.7553    2.1008   -0.6683 H   0  0  0  0  0  0  0  0  0  0  0  0
    0.6052   -0.8746   -0.0275 H   0  0  0  0  0  0  0  0  0  0  0  0
    1.0272   -0.0331   -1.5370 H   0  0  0  0  0  0  0  0  0  0  0  0
    2.4131    0.3775    1.1667 H   0  0  0  0  0  0  0  0  0  0  0  0
    2.8278    1.2162   -0.3247 H   0  0  0  0  0  0  0  0  0  0  0  0
    2.9645   -1.8213    0.0867 H   0  0  0  0  0  0  0  0  0  0  0  0
    3.3810   -0.9807   -1.4084 H   0  0  0  0  0  0  0  0  0  0  0  0
    4.7797   -0.5892    1.2908 H   0  0  0  0  0  0  0  0  0  0  0  0
    5.1985    0.2561   -0.2124 H   0  0  0  0  0  0  0  0  0  0  0  0
    5.4100   -1.4992   -0.0928 H   0  0  0  0  0  0  0  0  0  0  0  0
  1  2  1  0
  2  3  1  0
  3  4  1  0
  4  5  1  0
  5  6  2  0
  5  7  1  0
  7  8  1  0
  8  9  1  0
  9 10  1  0
  1 11  1  0
  1 12  1  0
  1 13  1  0
  2 14  1  0
  2 15  1  0
  3 16  1  0
  3 17  1  0
  4 18  1  0
  4 19  1  0
  7 20  1  0
  7 21  1  0
  8 22  1  0
  8 23  1  0
  9 24  1  0
  9 25  1  0
 10 26  1  0
 10 27  1  0
 10 28  1  0
M  END
>  <Energy>  (8) 
-0.9053945032117899

>  <Real charge>  (8) 
0

>  <Mult>  (8) 
1

$$$$
mol_179 332
     RDKit          3D

 28 27  0  0  0  0  0  0  0  0999 V2000
    4.0600    1.2112    0.0524 C   0  0  0  0  0  0  0  0  0  0  0  0
    2.6165    0.7701    0.2378 C   0  0  0  0  0  0  0  0  0  0  0  0
    2.5260   -0.7235    0.5605 C   0  0  0  0  0  0  0  0  0  0  0  0
    1.0857   -1.1844    0.7774 C   0  0  0  0  0  0  0  0  0  0  0  0
    0.2670   -1.2510   -0.5023 C   0  0  0  0  0  0  0  0  0  0  0  0
    0.7795   -1.2290   -1.6211 O   0  0  0  0  0  0  0  0  0  0  0  0
   -1.2354   -1.3583   -0.3416 C   0  0  0  0  0  0  0  0  0  0  0  0
   -1.8625    0.0264   -0.2306 C   0  0  0  0  0  0  0  0  0  0  0  0
   -3.3818   -0.0610   -0.0976 C   0  0  0  0  0  0  0  0  0  0  0  0
   -4.0117    1.3183    0.0130 C   0  0  0  0  0  0  0  0  0  0  0  0
    4.5323    0.6699   -0.7736 H   0  0  0  0  0  0  0  0  0  0  0  0
    4.1032    2.2812   -0.1738 H   0  0  0  0  0  0  0  0  0  0  0  0
    4.6449    1.0322    0.9603 H   0  0  0  0  0  0  0  0  0  0  0  0
    2.0551    0.9987   -0.6748 H   0  0  0  0  0  0  0  0  0  0  0  0
    2.1651    1.3531    1.0491 H   0  0  0  0  0  0  0  0  0  0  0  0
    2.9963   -1.3072   -0.2400 H   0  0  0  0  0  0  0  0  0  0  0  0
    3.0955   -0.9233    1.4766 H   0  0  0  0  0  0  0  0  0  0  0  0
    0.5853   -0.5183    1.4881 H   0  0  0  0  0  0  0  0  0  0  0  0
    1.0900   -2.1937    1.2045 H   0  0  0  0  0  0  0  0  0  0  0  0
   -1.6332   -1.8976   -1.2092 H   0  0  0  0  0  0  0  0  0  0  0  0
   -1.4550   -1.9683    0.5416 H   0  0  0  0  0  0  0  0  0  0  0  0
   -1.4460    0.5567    0.6344 H   0  0  0  0  0  0  0  0  0  0  0  0
   -1.6006    0.6209   -1.1150 H   0  0  0  0  0  0  0  0  0  0  0  0
   -3.6446   -0.6486    0.7898 H   0  0  0  0  0  0  0  0  0  0  0  0
   -3.8027   -0.5797   -0.9669 H   0  0  0  0  0  0  0  0  0  0  0  0
   -3.6359    1.8519    0.8918 H   0  0  0  0  0  0  0  0  0  0  0  0
   -5.0987    1.2321    0.1071 H   0  0  0  0  0  0  0  0  0  0  0  0
   -3.7943    1.9212   -0.8745 H   0  0  0  0  0  0  0  0  0  0  0  0
  1  2  1  0
  2  3  1  0
  3  4  1  0
  4  5  1  0
  5  6  2  0
  5  7  1  0
  7  8  1  0
  8  9  1  0
  9 10  1  0
  1 11  1  0
  1 12  1  0
  1 13  1  0
  2 14  1  0
  2 15  1  0
  3 16  1  0
  3 17  1  0
  4 18  1  0
  4 19  1  0
  7 20  1  0
  7 21  1  0
  8 22  1  0
  8 23  1  0
  9 24  1  0
  9 25  1  0
 10 26  1  0
 10 27  1  0
 10 28  1  0
M  END
>  <Energy>  (9) 
-0.8992103222907142

>  <Real charge>  (9) 
0

>  <Mult>  (9) 
1

$$$$
mol_179 49
     RDKit          3D

 28 27  0  0  0  0  0  0  0  0999 V2000
    4.7106   -0.5050   -0.0255 C   0  0  0  0  0  0  0  0  0  0  0  0
    3.2156   -0.7808    0.0135 C   0  0  0  0  0  0  0  0  0  0  0  0
    2.4433    0.4085    0.5895 C   0  0  0  0  0  0  0  0  0  0  0  0
    0.9401    0.1447    0.6668 C   0  0  0  0  0  0  0  0  0  0  0  0
    0.2543    0.1321   -0.6908 C   0  0  0  0  0  0  0  0  0  0  0  0
    0.7613    0.6376   -1.6922 O   0  0  0  0  0  0  0  0  0  0  0  0
   -1.1263   -0.4907   -0.7544 C   0  0  0  0  0  0  0  0  0  0  0  0
   -2.1751    0.4315   -0.1439 C   0  0  0  0  0  0  0  0  0  0  0  0
   -3.5784   -0.1573   -0.2792 C   0  0  0  0  0  0  0  0  0  0  0  0
   -4.6279    0.7578    0.3314 C   0  0  0  0  0  0  0  0  0  0  0  0
    5.1006   -0.3121    0.9790 H   0  0  0  0  0  0  0  0  0  0  0  0
    4.9328    0.3636   -0.6536 H   0  0  0  0  0  0  0  0  0  0  0  0
    5.2444   -1.3673   -0.4371 H   0  0  0  0  0  0  0  0  0  0  0  0
    3.0317   -1.6732    0.6230 H   0  0  0  0  0  0  0  0  0  0  0  0
    2.8693   -1.0056   -1.0013 H   0  0  0  0  0  0  0  0  0  0  0  0
    2.6416    1.3062   -0.0083 H   0  0  0  0  0  0  0  0  0  0  0  0
    2.8114    0.6135    1.6024 H   0  0  0  0  0  0  0  0  0  0  0  0
    0.7563   -0.8130    1.1656 H   0  0  0  0  0  0  0  0  0  0  0  0
    0.4677    0.9345    1.2611 H   0  0  0  0  0  0  0  0  0  0  0  0
   -1.3583   -0.6935   -1.8066 H   0  0  0  0  0  0  0  0  0  0  0  0
   -1.0996   -1.4587   -0.2421 H   0  0  0  0  0  0  0  0  0  0  0  0
   -1.9497    0.6027    0.9156 H   0  0  0  0  0  0  0  0  0  0  0  0
   -2.1342    1.4120   -0.6345 H   0  0  0  0  0  0  0  0  0  0  0  0
   -3.6213   -1.1344    0.2159 H   0  0  0  0  0  0  0  0  0  0  0  0
   -3.8145   -0.3187   -1.3374 H   0  0  0  0  0  0  0  0  0  0  0  0
   -4.4395    0.9138    1.3984 H   0  0  0  0  0  0  0  0  0  0  0  0
   -4.6325    1.7343   -0.1634 H   0  0  0  0  0  0  0  0  0  0  0  0
   -5.6240    0.3174    0.2232 H   0  0  0  0  0  0  0  0  0  0  0  0
  1  2  1  0
  2  3  1  0
  3  4  1  0
  4  5  1  0
  5  6  2  0
  5  7  1  0
  7  8  1  0
  8  9  1  0
  9 10  1  0
  1 11  1  0
  1 12  1  0
  1 13  1  0
  2 14  1  0
  2 15  1  0
  3 16  1  0
  3 17  1  0
  4 18  1  0
  4 19  1  0
  7 20  1  0
  7 21  1  0
  8 22  1  0
  8 23  1  0
  9 24  1  0
  9 25  1  0
 10 26  1  0
 10 27  1  0
 10 28  1  0
M  END
>  <Energy>  (10) 
-0.8738600554932565

>  <Real charge>  (10) 
0

>  <Mult>  (10) 
1

$$$$
mol_179 112
     RDKit          3D

 28 27  0  0  0  0  0  0  0  0999 V2000
   -4.4434    0.4522    0.5322 C   0  0  0  0  0  0  0  0  0  0  0  0
   -3.8934   -0.7117   -0.2777 C   0  0  0  0  0  0  0  0  0  0  0  0
   -2.5120   -0.4395   -0.8758 C   0  0  0  0  0  0  0  0  0  0  0  0
   -1.4196   -0.2680    0.1783 C   0  0  0  0  0  0  0  0  0  0  0  0
   -0.0352   -0.1203   -0.4355 C   0  0  0  0  0  0  0  0  0  0  0  0
    0.1440   -0.0865   -1.6518 O   0  0  0  0  0  0  0  0  0  0  0  0
    1.1116   -0.0077    0.5573 C   0  0  0  0  0  0  0  0  0  0  0  0
    2.4687    0.1395   -0.1270 C   0  0  0  0  0  0  0  0  0  0  0  0
    3.5983    0.2493    0.8961 C   0  0  0  0  0  0  0  0  0  0  0  0
    4.9514    0.3961    0.2186 C   0  0  0  0  0  0  0  0  0  0  0  0
   -3.8468    0.6330    1.4310 H   0  0  0  0  0  0  0  0  0  0  0  0
   -4.4620    1.3709   -0.0625 H   0  0  0  0  0  0  0  0  0  0  0  0
   -5.4675    0.2356    0.8528 H   0  0  0  0  0  0  0  0  0  0  0  0
   -4.5903   -0.9264   -1.0966 H   0  0  0  0  0  0  0  0  0  0  0  0
   -3.8577   -1.6089    0.3511 H   0  0  0  0  0  0  0  0  0  0  0  0
   -2.2511   -1.2783   -1.5336 H   0  0  0  0  0  0  0  0  0  0  0  0
   -2.5548    0.4514   -1.5147 H   0  0  0  0  0  0  0  0  0  0  0  0
   -1.6073    0.6261    0.7815 H   0  0  0  0  0  0  0  0  0  0  0  0
   -1.4018   -1.1414    0.8395 H   0  0  0  0  0  0  0  0  0  0  0  0
    1.1051   -0.9078    1.1820 H   0  0  0  0  0  0  0  0  0  0  0  0
    0.9195    0.8621    1.1954 H   0  0  0  0  0  0  0  0  0  0  0  0
    2.6467   -0.7216   -0.7831 H   0  0  0  0  0  0  0  0  0  0  0  0
    2.4640    1.0293   -0.7690 H   0  0  0  0  0  0  0  0  0  0  0  0
    3.6107   -0.6419    1.5344 H   0  0  0  0  0  0  0  0  0  0  0  0
    3.4273    1.1135    1.5485 H   0  0  0  0  0  0  0  0  0  0  0  0
    4.9833    1.2966   -0.4030 H   0  0  0  0  0  0  0  0  0  0  0  0
    5.7446    0.4729    0.9688 H   0  0  0  0  0  0  0  0  0  0  0  0
    5.1676   -0.4684   -0.4172 H   0  0  0  0  0  0  0  0  0  0  0  0
  1  2  1  0
  2  3  1  0
  3  4  1  0
  4  5  1  0
  5  6  2  0
  5  7  1  0
  7  8  1  0
  8  9  1  0
  9 10  1  0
  1 11  1  0
  1 12  1  0
  1 13  1  0
  2 14  1  0
  2 15  1  0
  3 16  1  0
  3 17  1  0
  4 18  1  0
  4 19  1  0
  7 20  1  0
  7 21  1  0
  8 22  1  0
  8 23  1  0
  9 24  1  0
  9 25  1  0
 10 26  1  0
 10 27  1  0
 10 28  1  0
M  END
>  <Energy>  (11) 
-0.8621151247838962

>  <Real charge>  (11) 
0

>  <Mult>  (11) 
1

$$$$
mol_179 284
     RDKit          3D

 28 27  0  0  0  0  0  0  0  0999 V2000
    4.4315    0.0902   -0.1181 C   0  0  0  0  0  0  0  0  0  0  0  0
    3.5260   -1.0070   -0.6556 C   0  0  0  0  0  0  0  0  0  0  0  0
    2.1685   -1.0756    0.0462 C   0  0  0  0  0  0  0  0  0  0  0  0
    1.3052    0.1635   -0.1845 C   0  0  0  0  0  0  0  0  0  0  0  0
   -0.0864    0.0240    0.4149 C   0  0  0  0  0  0  0  0  0  0  0  0
   -0.4192   -0.9566    1.0785 O   0  0  0  0  0  0  0  0  0  0  0  0
   -1.0230    1.1999    0.1759 C   0  0  0  0  0  0  0  0  0  0  0  0
   -2.4708    0.9302    0.5826 C   0  0  0  0  0  0  0  0  0  0  0  0
   -3.1839   -0.0135   -0.3890 C   0  0  0  0  0  0  0  0  0  0  0  0
   -4.6291   -0.2460    0.0237 C   0  0  0  0  0  0  0  0  0  0  0  0
    5.4169    0.0290   -0.5911 H   0  0  0  0  0  0  0  0  0  0  0  0
    4.5684   -0.0077    0.9635 H   0  0  0  0  0  0  0  0  0  0  0  0
    4.0254    1.0841   -0.3276 H   0  0  0  0  0  0  0  0  0  0  0  0
    3.3824   -0.8661   -1.7332 H   0  0  0  0  0  0  0  0  0  0  0  0
    4.0326   -1.9710   -0.5270 H   0  0  0  0  0  0  0  0  0  0  0  0
    2.3162   -1.2304    1.1223 H   0  0  0  0  0  0  0  0  0  0  0  0
    1.6353   -1.9613   -0.3223 H   0  0  0  0  0  0  0  0  0  0  0  0
    1.1913    0.3400   -1.2597 H   0  0  0  0  0  0  0  0  0  0  0  0
    1.7701    1.0445    0.2695 H   0  0  0  0  0  0  0  0  0  0  0  0
   -0.9767    1.4765   -0.8830 H   0  0  0  0  0  0  0  0  0  0  0  0
   -0.6358    2.0393    0.7648 H   0  0  0  0  0  0  0  0  0  0  0  0
   -3.0080    1.8865    0.6046 H   0  0  0  0  0  0  0  0  0  0  0  0
   -2.5107    0.5198    1.5987 H   0  0  0  0  0  0  0  0  0  0  0  0
   -2.6676   -0.9786   -0.4335 H   0  0  0  0  0  0  0  0  0  0  0  0
   -3.1640    0.4103   -1.3998 H   0  0  0  0  0  0  0  0  0  0  0  0
   -5.1882    0.6949    0.0428 H   0  0  0  0  0  0  0  0  0  0  0  0
   -4.6846   -0.6996    1.0184 H   0  0  0  0  0  0  0  0  0  0  0  0
   -5.1218   -0.9194   -0.6847 H   0  0  0  0  0  0  0  0  0  0  0  0
  1  2  1  0
  2  3  1  0
  3  4  1  0
  4  5  1  0
  5  6  2  0
  5  7  1  0
  7  8  1  0
  8  9  1  0
  9 10  1  0
  1 11  1  0
  1 12  1  0
  1 13  1  0
  2 14  1  0
  2 15  1  0
  3 16  1  0
  3 17  1  0
  4 18  1  0
  4 19  1  0
  7 20  1  0
  7 21  1  0
  8 22  1  0
  8 23  1  0
  9 24  1  0
  9 25  1  0
 10 26  1  0
 10 27  1  0
 10 28  1  0
M  END
>  <Energy>  (12) 
-0.793804183697309

>  <Real charge>  (12) 
0

>  <Mult>  (12) 
1

$$$$
mol_179 167
     RDKit          3D

 28 27  0  0  0  0  0  0  0  0999 V2000
    4.3396    1.0673   -0.8671 C   0  0  0  0  0  0  0  0  0  0  0  0
    2.9799    0.8548   -0.2197 C   0  0  0  0  0  0  0  0  0  0  0  0
    2.6537   -0.6344   -0.0822 C   0  0  0  0  0  0  0  0  0  0  0  0
    1.3021   -0.8753    0.5884 C   0  0  0  0  0  0  0  0  0  0  0  0
    0.1076   -0.5576   -0.3000 C   0  0  0  0  0  0  0  0  0  0  0  0
    0.2240   -0.3400   -1.5048 O   0  0  0  0  0  0  0  0  0  0  0  0
   -1.2441   -0.5541    0.3986 C   0  0  0  0  0  0  0  0  0  0  0  0
   -2.4009   -0.2953   -0.5652 C   0  0  0  0  0  0  0  0  0  0  0  0
   -3.7760   -0.4043    0.0959 C   0  0  0  0  0  0  0  0  0  0  0  0
   -4.0274    0.6613    1.1515 C   0  0  0  0  0  0  0  0  0  0  0  0
    5.1343    0.6071   -0.2713 H   0  0  0  0  0  0  0  0  0  0  0  0
    4.5555    2.1368   -0.9528 H   0  0  0  0  0  0  0  0  0  0  0  0
    4.3675    0.6334   -1.8717 H   0  0  0  0  0  0  0  0  0  0  0  0
    2.2170    1.3597   -0.8221 H   0  0  0  0  0  0  0  0  0  0  0  0
    2.9762    1.3282    0.7690 H   0  0  0  0  0  0  0  0  0  0  0  0
    2.6808   -1.1152   -1.0675 H   0  0  0  0  0  0  0  0  0  0  0  0
    3.4319   -1.1118    0.5261 H   0  0  0  0  0  0  0  0  0  0  0  0
    1.2219   -1.9335    0.8622 H   0  0  0  0  0  0  0  0  0  0  0  0
    1.2267   -0.2794    1.5045 H   0  0  0  0  0  0  0  0  0  0  0  0
   -1.3738   -1.5287    0.8820 H   0  0  0  0  0  0  0  0  0  0  0  0
   -1.2110    0.2206    1.1715 H   0  0  0  0  0  0  0  0  0  0  0  0
   -2.3562   -1.0216   -1.3868 H   0  0  0  0  0  0  0  0  0  0  0  0
   -2.2881    0.6953   -1.0232 H   0  0  0  0  0  0  0  0  0  0  0  0
   -4.5435   -0.3121   -0.6817 H   0  0  0  0  0  0  0  0  0  0  0  0
   -3.8970   -1.3974    0.5441 H   0  0  0  0  0  0  0  0  0  0  0  0
   -3.3611    0.5403    2.0106 H   0  0  0  0  0  0  0  0  0  0  0  0
   -3.8831    1.6649    0.7392 H   0  0  0  0  0  0  0  0  0  0  0  0
   -5.0565    0.5907    1.5184 H   0  0  0  0  0  0  0  0  0  0  0  0
  1  2  1  0
  2  3  1  0
  3  4  1  0
  4  5  1  0
  5  6  2  0
  5  7  1  0
  7  8  1  0
  8  9  1  0
  9 10  1  0
  1 11  1  0
  1 12  1  0
  1 13  1  0
  2 14  1  0
  2 15  1  0
  3 16  1  0
  3 17  1  0
  4 18  1  0
  4 19  1  0
  7 20  1  0
  7 21  1  0
  8 22  1  0
  8 23  1  0
  9 24  1  0
  9 25  1  0
 10 26  1  0
 10 27  1  0
 10 28  1  0
M  END
>  <Energy>  (13) 
-0.7874008221743145

>  <Real charge>  (13) 
0

>  <Mult>  (13) 
1

$$$$
mol_179 91
     RDKit          3D

 28 27  0  0  0  0  0  0  0  0999 V2000
    3.3609    0.6972   -2.0082 C   0  0  0  0  0  0  0  0  0  0  0  0
    2.2699    0.5792   -0.9554 C   0  0  0  0  0  0  0  0  0  0  0  0
    2.3688   -0.7456   -0.1948 C   0  0  0  0  0  0  0  0  0  0  0  0
    1.2973   -0.8766    0.8865 C   0  0  0  0  0  0  0  0  0  0  0  0
   -0.1017   -1.1139    0.3371 C   0  0  0  0  0  0  0  0  0  0  0  0
   -0.2985   -1.4542   -0.8286 O   0  0  0  0  0  0  0  0  0  0  0  0
   -1.2356   -0.9888    1.3434 C   0  0  0  0  0  0  0  0  0  0  0  0
   -2.6148   -0.8458    0.7009 C   0  0  0  0  0  0  0  0  0  0  0  0
   -2.8292    0.4550   -0.0806 C   0  0  0  0  0  0  0  0  0  0  0  0
   -2.7411    1.7061    0.7798 C   0  0  0  0  0  0  0  0  0  0  0  0
    4.3544    0.6506   -1.5510 H   0  0  0  0  0  0  0  0  0  0  0  0
    3.2831   -0.1084   -2.7453 H   0  0  0  0  0  0  0  0  0  0  0  0
    3.2752    1.6513   -2.5375 H   0  0  0  0  0  0  0  0  0  0  0  0
    2.3570    1.4172   -0.2539 H   0  0  0  0  0  0  0  0  0  0  0  0
    1.2935    0.6678   -1.4442 H   0  0  0  0  0  0  0  0  0  0  0  0
    3.3537   -0.8062    0.2844 H   0  0  0  0  0  0  0  0  0  0  0  0
    2.3050   -1.5850   -0.8977 H   0  0  0  0  0  0  0  0  0  0  0  0
    1.5361   -1.7305    1.5305 H   0  0  0  0  0  0  0  0  0  0  0  0
    1.2844    0.0258    1.5074 H   0  0  0  0  0  0  0  0  0  0  0  0
   -1.2168   -1.8966    1.9575 H   0  0  0  0  0  0  0  0  0  0  0  0
   -1.0339   -0.1408    2.0046 H   0  0  0  0  0  0  0  0  0  0  0  0
   -3.3753   -0.9142    1.4887 H   0  0  0  0  0  0  0  0  0  0  0  0
   -2.7926   -1.6907    0.0242 H   0  0  0  0  0  0  0  0  0  0  0  0
   -3.8252    0.4192   -0.5386 H   0  0  0  0  0  0  0  0  0  0  0  0
   -2.1109    0.5312   -0.9041 H   0  0  0  0  0  0  0  0  0  0  0  0
   -3.0173    2.5865    0.1905 H   0  0  0  0  0  0  0  0  0  0  0  0
   -1.7255    1.8655    1.1533 H   0  0  0  0  0  0  0  0  0  0  0  0
   -3.4211    1.6446    1.6352 H   0  0  0  0  0  0  0  0  0  0  0  0
  1  2  1  0
  2  3  1  0
  3  4  1  0
  4  5  1  0
  5  6  2  0
  5  7  1  0
  7  8  1  0
  8  9  1  0
  9 10  1  0
  1 11  1  0
  1 12  1  0
  1 13  1  0
  2 14  1  0
  2 15  1  0
  3 16  1  0
  3 17  1  0
  4 18  1  0
  4 19  1  0
  7 20  1  0
  7 21  1  0
  8 22  1  0
  8 23  1  0
  9 24  1  0
  9 25  1  0
 10 26  1  0
 10 27  1  0
 10 28  1  0
M  END
>  <Energy>  (14) 
-0.7336135828558715

>  <Real charge>  (14) 
0

>  <Mult>  (14) 
1

$$$$
mol_179 142
     RDKit          3D

 28 27  0  0  0  0  0  0  0  0999 V2000
    3.5012    0.3506   -1.5934 C   0  0  0  0  0  0  0  0  0  0  0  0
    3.1549   -0.9089   -0.8143 C   0  0  0  0  0  0  0  0  0  0  0  0
    2.8608   -0.6536    0.6678 C   0  0  0  0  0  0  0  0  0  0  0  0
    1.6410    0.2264    0.9381 C   0  0  0  0  0  0  0  0  0  0  0  0
    0.3179   -0.4214    0.5576 C   0  0  0  0  0  0  0  0  0  0  0  0
    0.2121   -1.6314    0.3641 O   0  0  0  0  0  0  0  0  0  0  0  0
   -0.8744    0.5193    0.4802 C   0  0  0  0  0  0  0  0  0  0  0  0
   -2.1664   -0.2001    0.0997 C   0  0  0  0  0  0  0  0  0  0  0  0
   -3.3428    0.7721    0.0246 C   0  0  0  0  0  0  0  0  0  0  0  0
   -4.6313    0.0594   -0.3539 C   0  0  0  0  0  0  0  0  0  0  0  0
    2.6413    1.0218   -1.6745 H   0  0  0  0  0  0  0  0  0  0  0  0
    4.3235    0.8944   -1.1180 H   0  0  0  0  0  0  0  0  0  0  0  0
    3.8118    0.0889   -2.6101 H   0  0  0  0  0  0  0  0  0  0  0  0
    2.3069   -1.4096   -1.2939 H   0  0  0  0  0  0  0  0  0  0  0  0
    4.0034   -1.6007   -0.8808 H   0  0  0  0  0  0  0  0  0  0  0  0
    3.7393   -0.1823    1.1258 H   0  0  0  0  0  0  0  0  0  0  0  0
    2.7319   -1.6213    1.1683 H   0  0  0  0  0  0  0  0  0  0  0  0
    1.5889    0.4449    2.0111 H   0  0  0  0  0  0  0  0  0  0  0  0
    1.7323    1.1813    0.4118 H   0  0  0  0  0  0  0  0  0  0  0  0
   -0.6462    1.2908   -0.2637 H   0  0  0  0  0  0  0  0  0  0  0  0
   -0.9876    0.9991    1.4587 H   0  0  0  0  0  0  0  0  0  0  0  0
   -2.3824   -0.9851    0.8351 H   0  0  0  0  0  0  0  0  0  0  0  0
   -2.0386   -0.7013   -0.8680 H   0  0  0  0  0  0  0  0  0  0  0  0
   -3.4776    1.2690    0.9923 H   0  0  0  0  0  0  0  0  0  0  0  0
   -3.1335    1.5535   -0.7152 H   0  0  0  0  0  0  0  0  0  0  0  0
   -5.4594    0.7735   -0.4018 H   0  0  0  0  0  0  0  0  0  0  0  0
   -4.8866   -0.7078    0.3840 H   0  0  0  0  0  0  0  0  0  0  0  0
   -4.5405   -0.4218   -1.3329 H   0  0  0  0  0  0  0  0  0  0  0  0
  1  2  1  0
  2  3  1  0
  3  4  1  0
  4  5  1  0
  5  6  2  0
  5  7  1  0
  7  8  1  0
  8  9  1  0
  9 10  1  0
  1 11  1  0
  1 12  1  0
  1 13  1  0
  2 14  1  0
  2 15  1  0
  3 16  1  0
  3 17  1  0
  4 18  1  0
  4 19  1  0
  7 20  1  0
  7 21  1  0
  8 22  1  0
  8 23  1  0
  9 24  1  0
  9 25  1  0
 10 26  1  0
 10 27  1  0
 10 28  1  0
M  END
>  <Energy>  (15) 
-0.7099365005837257

>  <Real charge>  (15) 
0

>  <Mult>  (15) 
1

$$$$
