mol_332 58
     RDKit          3D

 21 21  0  0  0  0  0  0  0  0999 V2000
    1.4197   -0.4235   -0.5646 C   0  0  0  0  0  0  0  0  0  0  0  0
    0.6652   -1.5667    0.1119 C   0  0  0  0  0  0  0  0  0  0  0  0
   -0.8552   -1.4754    0.0397 C   0  0  0  0  0  0  0  0  0  0  0  0
   -1.4578   -0.1861    0.5950 C   0  0  0  0  0  0  0  0  0  0  0  0
   -1.2149    1.0169   -0.3108 C   0  0  0  0  0  0  0  0  0  0  0  0
    0.1088    1.7421   -0.0868 C   0  0  0  0  0  0  0  0  0  0  0  0
    1.3336    0.8840    0.2161 C   0  0  0  0  0  0  0  0  0  0  0  0
    1.0875   -0.2907   -1.6005 H   0  0  0  0  0  0  0  0  0  0  0  0
    2.4768   -0.7151   -0.6120 H   0  0  0  0  0  0  0  0  0  0  0  0
    0.9752   -1.6428    1.1616 H   0  0  0  0  0  0  0  0  0  0  0  0
    0.9688   -2.5084   -0.3627 H   0  0  0  0  0  0  0  0  0  0  0  0
   -1.2704   -2.3205    0.6033 H   0  0  0  0  0  0  0  0  0  0  0  0
   -1.1787   -1.6159   -0.9993 H   0  0  0  0  0  0  0  0  0  0  0  0
   -1.1052    0.0064    1.6146 H   0  0  0  0  0  0  0  0  0  0  0  0
   -2.5426   -0.3380    0.6644 H   0  0  0  0  0  0  0  0  0  0  0  0
   -1.2927    0.7137   -1.3624 H   0  0  0  0  0  0  0  0  0  0  0  0
   -2.0212    1.7448   -0.1533 H   0  0  0  0  0  0  0  0  0  0  0  0
   -0.0126    2.4573    0.7370 H   0  0  0  0  0  0  0  0  0  0  0  0
    0.3129    2.3516   -0.9766 H   0  0  0  0  0  0  0  0  0  0  0  0
    1.3797    0.6791    1.2930 H   0  0  0  0  0  0  0  0  0  0  0  0
    2.2231    1.4870   -0.0077 H   0  0  0  0  0  0  0  0  0  0  0  0
  1  2  1  0
  2  3  1  0
  3  4  1  0
  4  5  1  0
  5  6  1  0
  6  7  1  0
  7  1  1  0
  1  8  1  0
  1  9  1  0
  2 10  1  0
  2 11  1  0
  3 12  1  0
  3 13  1  0
  4 14  1  0
  4 15  1  0
  5 16  1  0
  5 17  1  0
  6 18  1  0
  6 19  1  0
  7 20  1  0
  7 21  1  0
M  END
>  <Energy>  (1) 
5.974835620484393

>  <Real charge>  (1) 
0

>  <Mult>  (1) 
1

$$$$
