mol_676 45
     RDKit          3D

 29 31  0  0  0  0  0  0  0  0999 V2000
   -2.9637   -1.5458    0.5480 C   0  0  0  0  0  0  0  0  0  0  0  0
   -1.9425   -0.7606   -0.2239 C   0  0  0  0  0  0  0  0  0  0  0  0
   -2.3985    0.0194   -1.4421 C   0  0  0  0  0  0  0  0  0  0  0  0
   -1.9385    0.7650   -0.2039 C   0  0  0  0  0  0  0  0  0  0  0  0
   -2.9529    1.5367    0.5894 C   0  0  0  0  0  0  0  0  0  0  0  0
   -0.4890    1.1424   -0.0891 C   0  0  0  0  0  0  0  0  0  0  0  0
   -0.1638    2.3172   -0.1264 O   0  0  0  0  0  0  0  0  0  0  0  0
    0.2829   -0.0037    0.0053 N   0  0  0  0  0  0  0  0  0  0  0  0
   -0.4938   -1.1451   -0.1060 C   0  0  0  0  0  0  0  0  0  0  0  0
   -0.1787   -2.3231   -0.1069 O   0  0  0  0  0  0  0  0  0  0  0  0
    1.7123   -0.0040    0.1493 C   0  0  0  0  0  0  0  0  0  0  0  0
    2.4731   -1.1753   -0.0142 C   0  0  0  0  0  0  0  0  0  0  0  0
    3.8662   -1.1679    0.1303 C   0  0  0  0  0  0  0  0  0  0  0  0
    4.7535   -2.6275   -0.0896 Cl  0  0  0  0  0  0  0  0  0  0  0  0
    4.5438    0.0003    0.4447 C   0  0  0  0  0  0  0  0  0  0  0  0
    3.8126    1.1661    0.6142 C   0  0  0  0  0  0  0  0  0  0  0  0
    4.6306    2.6275    1.0158 Cl  0  0  0  0  0  0  0  0  0  0  0  0
    2.4197    1.1687    0.4699 C   0  0  0  0  0  0  0  0  0  0  0  0
   -2.7517   -1.4956    1.6209 H   0  0  0  0  0  0  0  0  0  0  0  0
   -2.9384   -2.5972    0.2435 H   0  0  0  0  0  0  0  0  0  0  0  0
   -3.9829   -1.1820    0.3839 H   0  0  0  0  0  0  0  0  0  0  0  0
   -1.7611    0.0294   -2.3211 H   0  0  0  0  0  0  0  0  0  0  0  0
   -3.4548    0.0258   -1.6901 H   0  0  0  0  0  0  0  0  0  0  0  0
   -2.9224    2.5950    0.3105 H   0  0  0  0  0  0  0  0  0  0  0  0
   -2.7380    1.4594    1.6601 H   0  0  0  0  0  0  0  0  0  0  0  0
   -3.9744    1.1825    0.4195 H   0  0  0  0  0  0  0  0  0  0  0  0
    2.0144   -2.1238   -0.2772 H   0  0  0  0  0  0  0  0  0  0  0  0
    5.6240    0.0019    0.5568 H   0  0  0  0  0  0  0  0  0  0  0  0
    1.9119    2.1142    0.6377 H   0  0  0  0  0  0  0  0  0  0  0  0
  1  2  1  0
  2  3  1  0
  3  4  1  0
  4  5  1  0
  4  6  1  0
  6  7  2  0
  6  8  1  0
  8  9  1  0
  9 10  2  0
  8 11  1  0
 11 12  2  0
 12 13  1  0
 13 14  1  0
 13 15  2  0
 15 16  1  0
 16 17  1  0
 16 18  2  0
  9  2  1  0
  4  2  1  0
 18 11  1  0
  1 19  1  0
  1 20  1  0
  1 21  1  0
  3 22  1  0
  3 23  1  0
  5 24  1  0
  5 25  1  0
  5 26  1  0
 12 27  1  0
 15 28  1  0
 18 29  1  0
M  END
>  <Energy>  (1) 
16.269384943591483

>  <Real charge>  (1) 
0

>  <Mult>  (1) 
1

$$$$
