mol_581 125
     RDKit          3D

 15 15  0  0  0  0  0  0  0  0999 V2000
    2.9753    0.1309   -0.4224 O   0  0  0  0  0  0  0  0  0  0  0  0
    1.6272    0.0709   -0.2308 C   0  0  0  0  0  0  0  0  0  0  0  0
    1.0048   -1.1062    0.1762 C   0  0  0  0  0  0  0  0  0  0  0  0
   -0.3794   -1.1203    0.3597 C   0  0  0  0  0  0  0  0  0  0  0  0
   -1.1240    0.0427    0.1340 C   0  0  0  0  0  0  0  0  0  0  0  0
   -2.5880    0.0351    0.3261 C   0  0  0  0  0  0  0  0  0  0  0  0
   -3.1928   -0.9683    0.6828 O   0  0  0  0  0  0  0  0  0  0  0  0
   -0.4924    1.2211   -0.2745 C   0  0  0  0  0  0  0  0  0  0  0  0
    0.8914    1.2309   -0.4568 C   0  0  0  0  0  0  0  0  0  0  0  0
    3.3578   -0.7413   -0.2303 H   0  0  0  0  0  0  0  0  0  0  0  0
    1.5730   -2.0139    0.3541 H   0  0  0  0  0  0  0  0  0  0  0  0
   -0.8755   -2.0352    0.6777 H   0  0  0  0  0  0  0  0  0  0  0  0
   -3.1155    0.9839    0.1316 H   0  0  0  0  0  0  0  0  0  0  0  0
   -1.0591    2.1307   -0.4531 H   0  0  0  0  0  0  0  0  0  0  0  0
    1.3972    2.1390   -0.7742 H   0  0  0  0  0  0  0  0  0  0  0  0
  1  2  1  0
  2  3  2  0
  3  4  1  0
  4  5  2  0
  5  6  1  0
  6  7  2  0
  5  8  1  0
  8  9  2  0
  9  2  1  0
  1 10  1  0
  3 11  1  0
  4 12  1  0
  6 13  1  0
  8 14  1  0
  9 15  1  0
M  END
>  <Energy>  (1) 
19.577996557367385

>  <Real charge>  (1) 
0

>  <Mult>  (1) 
1

$$$$
mol_581 38
     RDKit          3D

 15 15  0  0  0  0  0  0  0  0999 V2000
   -2.9586   -0.3724   -0.3980 O   0  0  0  0  0  0  0  0  0  0  0  0
   -1.6182   -0.2033   -0.2175 C   0  0  0  0  0  0  0  0  0  0  0  0
   -1.1138    0.8832    0.4936 C   0  0  0  0  0  0  0  0  0  0  0  0
    0.2678    1.0176    0.6547 C   0  0  0  0  0  0  0  0  0  0  0  0
    1.1268    0.0617    0.1012 C   0  0  0  0  0  0  0  0  0  0  0  0
    2.5856    0.2116    0.2763 C   0  0  0  0  0  0  0  0  0  0  0  0
    3.3855   -0.5925   -0.1850 O   0  0  0  0  0  0  0  0  0  0  0  0
    0.6123   -1.0257   -0.6110 C   0  0  0  0  0  0  0  0  0  0  0  0
   -0.7676   -1.1562   -0.7695 C   0  0  0  0  0  0  0  0  0  0  0  0
   -3.4307    0.3577    0.0348 H   0  0  0  0  0  0  0  0  0  0  0  0
   -1.7758    1.6278    0.9250 H   0  0  0  0  0  0  0  0  0  0  0  0
    0.6597    1.8659    1.2097 H   0  0  0  0  0  0  0  0  0  0  0  0
    2.9242    1.0916    0.8484 H   0  0  0  0  0  0  0  0  0  0  0  0
    1.2799   -1.7691   -1.0414 H   0  0  0  0  0  0  0  0  0  0  0  0
   -1.1774   -1.9979   -1.3214 H   0  0  0  0  0  0  0  0  0  0  0  0
  1  2  1  0
  2  3  2  0
  3  4  1  0
  4  5  2  0
  5  6  1  0
  6  7  2  0
  5  8  1  0
  8  9  2  0
  9  2  1  0
  1 10  1  0
  3 11  1  0
  4 12  1  0
  6 13  1  0
  8 14  1  0
  9 15  1  0
M  END
>  <Energy>  (2) 
20.176591027853068

>  <Real charge>  (2) 
0

>  <Mult>  (2) 
1

$$$$
