mol_1076 13
     RDKit          3D

  5  4  0  0  0  0  0  0  0  0999 V2000
   -1.7309    1.0117   -0.0069 I   0  0  0  0  0  0  0  0  0  0  0  0
   -0.0023   -0.2361    0.0011 C   0  0  0  0  0  0  0  0  0  0  0  0
    1.7504    0.9777   -0.0022 I   0  0  0  0  0  0  0  0  0  0  0  0
   -0.0074   -0.8808   -0.9018 H   0  0  0  0  0  0  0  0  0  0  0  0
   -0.0098   -0.8725    0.9098 H   0  0  0  0  0  0  0  0  0  0  0  0
  1  2  1  0
  2  3  1  0
  2  4  1  0
  2  5  1  0
M  END
>  <Energy>  (1) 
1.1120191288599807e-07

>  <Real charge>  (1) 
0

>  <Mult>  (1) 
1

$$$$
