mol_261 38
     RDKit          3D

 40 41  0  0  0  0  0  0  0  0999 V2000
   -4.1590   -2.9458    0.7398 C   0  0  0  0  0  0  0  0  0  0  0  0
   -4.0900   -1.5791    1.3904 C   0  0  0  0  0  0  0  0  0  0  0  0
   -2.7296   -1.2902    1.6751 O   0  0  0  0  0  0  0  0  0  0  0  0
   -2.2616    0.2560    1.8655 P   0  0  0  0  0  5  0  0  0  0  0  0
   -3.2488    1.1648    3.2793 S   0  0  0  0  0  0  0  0  0  0  0  0
   -2.6097    0.8048    0.3769 O   0  0  0  0  0  0  0  0  0  0  0  0
   -2.2987    2.1476    0.0391 C   0  0  0  0  0  0  0  0  0  0  0  0
   -2.6325    2.3623   -1.4231 C   0  0  0  0  0  0  0  0  0  0  0  0
   -0.1673    0.1509    2.0179 S   0  0  0  0  0  0  0  0  0  0  0  0
    0.2833   -0.8286    0.5442 C   0  0  0  0  0  0  0  0  0  0  0  0
    0.2771   -2.3322    0.8603 C   0  0  0  0  0  0  0  0  0  0  0  0
    0.5661   -3.2956   -0.6218 Cl  0  0  0  0  0  0  0  0  0  0  0  0
    1.5459   -0.3305    0.0117 N   0  0  0  0  0  0  0  0  0  0  0  0
    1.6055    0.6203   -0.9717 C   0  0  0  0  0  0  0  0  0  0  0  0
    0.6936    1.1650   -1.5645 O   0  0  0  0  0  0  0  0  0  0  0  0
    3.0187    0.9187   -1.1858 C   0  0  0  0  0  0  0  0  0  0  0  0
    3.6289    1.7806   -2.0757 C   0  0  0  0  0  0  0  0  0  0  0  0
    5.0246    1.8582   -2.0330 C   0  0  0  0  0  0  0  0  0  0  0  0
    5.7644    1.0862   -1.1127 C   0  0  0  0  0  0  0  0  0  0  0  0
    5.1211    0.2234   -0.2195 C   0  0  0  0  0  0  0  0  0  0  0  0
    3.7430    0.1625   -0.2841 C   0  0  0  0  0  0  0  0  0  0  0  0
    2.7906   -0.6182    0.5024 C   0  0  0  0  0  0  0  0  0  0  0  0
    3.1125   -1.3523    1.4162 O   0  0  0  0  0  0  0  0  0  0  0  0
   -3.5750   -2.9607   -0.1865 H   0  0  0  0  0  0  0  0  0  0  0  0
   -5.1931   -3.2174    0.5101 H   0  0  0  0  0  0  0  0  0  0  0  0
   -3.7305   -3.7088    1.3981 H   0  0  0  0  0  0  0  0  0  0  0  0
   -4.5150   -0.8266    0.7194 H   0  0  0  0  0  0  0  0  0  0  0  0
   -4.6575   -1.5823    2.3257 H   0  0  0  0  0  0  0  0  0  0  0  0
   -1.2370    2.3416    0.2140 H   0  0  0  0  0  0  0  0  0  0  0  0
   -2.8899    2.8301    0.6562 H   0  0  0  0  0  0  0  0  0  0  0  0
   -3.6960    2.1760   -1.6060 H   0  0  0  0  0  0  0  0  0  0  0  0
   -2.0753    1.6629   -2.0546 H   0  0  0  0  0  0  0  0  0  0  0  0
   -2.3955    3.3843   -1.7317 H   0  0  0  0  0  0  0  0  0  0  0  0
   -0.4845   -0.6325   -0.2120 H   0  0  0  0  0  0  0  0  0  0  0  0
    1.0373   -2.6222    1.5898 H   0  0  0  0  0  0  0  0  0  0  0  0
   -0.6907   -2.6604    1.2460 H   0  0  0  0  0  0  0  0  0  0  0  0
    3.0477    2.3711   -2.7764 H   0  0  0  0  0  0  0  0  0  0  0  0
    5.5492    2.5237   -2.7168 H   0  0  0  0  0  0  0  0  0  0  0  0
    6.8503    1.1658   -1.0979 H   0  0  0  0  0  0  0  0  0  0  0  0
    5.6776   -0.3736    0.4959 H   0  0  0  0  0  0  0  0  0  0  0  0
  1  2  1  0
  2  3  1  0
  3  4  1  0
  4  5  2  0
  4  6  1  0
  6  7  1  0
  7  8  1  0
  4  9  1  0
  9 10  1  0
 10 11  1  0
 11 12  1  0
 10 13  1  0
 13 14  1  0
 14 15  2  0
 14 16  1  0
 16 17  2  0
 17 18  1  0
 18 19  2  0
 19 20  1  0
 20 21  2  0
 21 22  1  0
 22 23  2  0
 22 13  1  0
 21 16  1  0
  1 24  1  0
  1 25  1  0
  1 26  1  0
  2 27  1  0
  2 28  1  0
  7 29  1  0
  7 30  1  0
  8 31  1  0
  8 32  1  0
  8 33  1  0
 10 34  1  0
 11 35  1  0
 11 36  1  0
 17 37  1  0
 18 38  1  0
 19 39  1  0
 20 40  1  0
M  END
>  <Energy>  (1) 
-107.64832538608519

>  <Real charge>  (1) 
0

>  <Mult>  (1) 
1

$$$$
mol_261 68
     RDKit          3D

 40 41  0  0  0  0  0  0  0  0999 V2000
   -2.8932    3.5473   -0.7971 C   0  0  0  0  0  0  0  0  0  0  0  0
   -3.2166    2.5924    0.3335 C   0  0  0  0  0  0  0  0  0  0  0  0
   -3.0926    1.2640   -0.1521 O   0  0  0  0  0  0  0  0  0  0  0  0
   -2.7612    0.0670    0.8985 P   0  0  0  0  0  5  0  0  0  0  0  0
   -4.0910   -0.1040    2.3125 S   0  0  0  0  0  0  0  0  0  0  0  0
   -2.7749   -1.1858   -0.1373 O   0  0  0  0  0  0  0  0  0  0  0  0
   -3.9772   -1.5251   -0.8109 C   0  0  0  0  0  0  0  0  0  0  0  0
   -3.6179   -2.2936   -2.0662 C   0  0  0  0  0  0  0  0  0  0  0  0
   -0.7447    0.3075    1.4310 S   0  0  0  0  0  0  0  0  0  0  0  0
    0.1722   -0.3777    0.0048 C   0  0  0  0  0  0  0  0  0  0  0  0
   -0.1006    0.4068   -1.2892 C   0  0  0  0  0  0  0  0  0  0  0  0
    0.7668   -0.3132   -2.6811 Cl  0  0  0  0  0  0  0  0  0  0  0  0
    1.5869   -0.4502    0.3518 N   0  0  0  0  0  0  0  0  0  0  0  0
    2.4425    0.6157    0.4180 C   0  0  0  0  0  0  0  0  0  0  0  0
    2.2285    1.7911    0.1907 O   0  0  0  0  0  0  0  0  0  0  0  0
    3.7397    0.0865    0.8327 C   0  0  0  0  0  0  0  0  0  0  0  0
    4.9436    0.7292    1.0443 C   0  0  0  0  0  0  0  0  0  0  0  0
    6.0263   -0.0600    1.4457 C   0  0  0  0  0  0  0  0  0  0  0  0
    5.8807   -1.4519    1.6237 C   0  0  0  0  0  0  0  0  0  0  0  0
    4.6500   -2.0785    1.4033 C   0  0  0  0  0  0  0  0  0  0  0  0
    3.5972   -1.2774    1.0071 C   0  0  0  0  0  0  0  0  0  0  0  0
    2.2093   -1.6172    0.7034 C   0  0  0  0  0  0  0  0  0  0  0  0
    1.7511   -2.7415    0.7696 O   0  0  0  0  0  0  0  0  0  0  0  0
   -3.5623    3.3798   -1.6476 H   0  0  0  0  0  0  0  0  0  0  0  0
   -1.8724    3.3842   -1.1583 H   0  0  0  0  0  0  0  0  0  0  0  0
   -2.9902    4.5864   -0.4705 H   0  0  0  0  0  0  0  0  0  0  0  0
   -4.2444    2.7494    0.6741 H   0  0  0  0  0  0  0  0  0  0  0  0
   -2.5362    2.7644    1.1728 H   0  0  0  0  0  0  0  0  0  0  0  0
   -4.5410   -0.6252   -1.0749 H   0  0  0  0  0  0  0  0  0  0  0  0
   -4.5903   -2.1488   -0.1537 H   0  0  0  0  0  0  0  0  0  0  0  0
   -4.5168   -2.5867   -2.6157 H   0  0  0  0  0  0  0  0  0  0  0  0
   -3.0459   -3.1937   -1.8175 H   0  0  0  0  0  0  0  0  0  0  0  0
   -2.9850   -1.6856   -2.7214 H   0  0  0  0  0  0  0  0  0  0  0  0
   -0.1869   -1.4043   -0.1280 H   0  0  0  0  0  0  0  0  0  0  0  0
    0.2048    1.4544   -1.2249 H   0  0  0  0  0  0  0  0  0  0  0  0
   -1.1573    0.3814   -1.5610 H   0  0  0  0  0  0  0  0  0  0  0  0
    5.0415    1.8008    0.9043 H   0  0  0  0  0  0  0  0  0  0  0  0
    6.9951    0.4041    1.6240 H   0  0  0  0  0  0  0  0  0  0  0  0
    6.7388   -2.0443    1.9372 H   0  0  0  0  0  0  0  0  0  0  0  0
    4.5235   -3.1480    1.5371 H   0  0  0  0  0  0  0  0  0  0  0  0
  1  2  1  0
  2  3  1  0
  3  4  1  0
  4  5  2  0
  4  6  1  0
  6  7  1  0
  7  8  1  0
  4  9  1  0
  9 10  1  0
 10 11  1  0
 11 12  1  0
 10 13  1  0
 13 14  1  0
 14 15  2  0
 14 16  1  0
 16 17  2  0
 17 18  1  0
 18 19  2  0
 19 20  1  0
 20 21  2  0
 21 22  1  0
 22 23  2  0
 22 13  1  0
 21 16  1  0
  1 24  1  0
  1 25  1  0
  1 26  1  0
  2 27  1  0
  2 28  1  0
  7 29  1  0
  7 30  1  0
  8 31  1  0
  8 32  1  0
  8 33  1  0
 10 34  1  0
 11 35  1  0
 11 36  1  0
 17 37  1  0
 18 38  1  0
 19 39  1  0
 20 40  1  0
M  END
>  <Energy>  (2) 
-106.92968291268477

>  <Real charge>  (2) 
0

>  <Mult>  (2) 
1

$$$$
