mol_643 80
     RDKit          3D

 18 19  0  0  0  0  0  0  0  0999 V2000
    1.5669    2.3234   -0.7658 O   0  0  0  0  0  0  0  0  0  0  0  0
    1.3153    1.0348   -0.3575 C   0  0  0  0  0  0  0  0  0  0  0  0
    2.4021    0.1973   -0.1254 C   0  0  0  0  0  0  0  0  0  0  0  0
    2.1738   -1.1109    0.2884 C   0  0  0  0  0  0  0  0  0  0  0  0
    0.8648   -1.5637    0.4644 C   0  0  0  0  0  0  0  0  0  0  0  0
   -0.2265   -0.7061    0.2261 C   0  0  0  0  0  0  0  0  0  0  0  0
   -1.5540   -1.1230    0.3914 C   0  0  0  0  0  0  0  0  0  0  0  0
   -2.5939   -0.2342    0.1420 C   0  0  0  0  0  0  0  0  0  0  0  0
   -2.2731    1.0477   -0.2661 C   0  0  0  0  0  0  0  0  0  0  0  0
   -1.0080    1.4913   -0.4380 N   0  0  0  0  0  0  0  0  0  0  0  0
   -0.0039    0.6206   -0.1933 C   0  0  0  0  0  0  0  0  0  0  0  0
    0.6727    2.7152   -0.8642 H   0  0  0  0  0  0  0  0  0  0  0  0
    3.4133    0.5667   -0.2675 H   0  0  0  0  0  0  0  0  0  0  0  0
    3.0125   -1.7771    0.4737 H   0  0  0  0  0  0  0  0  0  0  0  0
    0.6991   -2.5889    0.7883 H   0  0  0  0  0  0  0  0  0  0  0  0
   -1.7815   -2.1359    0.7131 H   0  0  0  0  0  0  0  0  0  0  0  0
   -3.6286   -0.5349    0.2633 H   0  0  0  0  0  0  0  0  0  0  0  0
   -3.0510    1.7777   -0.4729 H   0  0  0  0  0  0  0  0  0  0  0  0
  1  2  1  0
  2  3  2  0
  3  4  1  0
  4  5  2  0
  5  6  1  0
  6  7  2  0
  7  8  1  0
  8  9  2  0
  9 10  1  0
 10 11  2  0
 11  2  1  0
 11  6  1  0
  1 12  1  0
  3 13  1  0
  4 14  1  0
  5 15  1  0
  7 16  1  0
  8 17  1  0
  9 18  1  0
M  END
>  <Energy>  (1) 
41.91104606622373

>  <Real charge>  (1) 
0

>  <Mult>  (1) 
1

$$$$
