mol_350 134
     RDKit          3D

 18 17  0  0  0  0  0  0  0  0999 V2000
   -3.0051   -0.1981    0.3559 C   0  0  0  0  0  0  0  0  0  0  0  0
   -1.6773    0.4946    0.6046 C   0  0  0  0  0  0  0  0  0  0  0  0
   -0.5013   -0.3411    0.1163 C   0  0  0  0  0  0  0  0  0  0  0  0
    0.7011    0.3778    0.3864 O   0  0  0  0  0  0  0  0  0  0  0  0
    1.8542   -0.3415   -0.0435 C   0  0  0  0  0  0  0  0  0  0  0  0
    3.0827    0.4860    0.2779 C   0  0  0  0  0  0  0  0  0  0  0  0
   -3.0503   -1.1587    0.8788 H   0  0  0  0  0  0  0  0  0  0  0  0
   -3.8307    0.4237    0.7159 H   0  0  0  0  0  0  0  0  0  0  0  0
   -3.1581   -0.3806   -0.7125 H   0  0  0  0  0  0  0  0  0  0  0  0
   -1.5610    0.7029    1.6750 H   0  0  0  0  0  0  0  0  0  0  0  0
   -1.6674    1.4707    0.1049 H   0  0  0  0  0  0  0  0  0  0  0  0
   -0.5856   -0.5214   -0.9616 H   0  0  0  0  0  0  0  0  0  0  0  0
   -0.4772   -1.3042    0.6392 H   0  0  0  0  0  0  0  0  0  0  0  0
    1.9063   -1.3034    0.4783 H   0  0  0  0  0  0  0  0  0  0  0  0
    1.7978   -0.5204   -1.1229 H   0  0  0  0  0  0  0  0  0  0  0  0
    3.0354    1.4577   -0.2249 H   0  0  0  0  0  0  0  0  0  0  0  0
    3.9942   -0.0302   -0.0363 H   0  0  0  0  0  0  0  0  0  0  0  0
    3.1423    0.6862    1.3528 H   0  0  0  0  0  0  0  0  0  0  0  0
  1  2  1  0
  2  3  1  0
  3  4  1  0
  4  5  1  0
  5  6  1  0
  1  7  1  0
  1  8  1  0
  1  9  1  0
  2 10  1  0
  2 11  1  0
  3 12  1  0
  3 13  1  0
  5 14  1  0
  5 15  1  0
  6 16  1  0
  6 17  1  0
  6 18  1  0
M  END
>  <Energy>  (1) 
1.305923097908016

>  <Real charge>  (1) 
0

>  <Mult>  (1) 
1

$$$$
mol_350 259
     RDKit          3D

 18 17  0  0  0  0  0  0  0  0999 V2000
    2.4468    0.5230   -0.1495 C   0  0  0  0  0  0  0  0  0  0  0  0
    1.7660   -0.2974    0.9369 C   0  0  0  0  0  0  0  0  0  0  0  0
    0.4412   -0.8910    0.4708 C   0  0  0  0  0  0  0  0  0  0  0  0
   -0.4708    0.1647    0.1748 O   0  0  0  0  0  0  0  0  0  0  0  0
   -1.7295   -0.3334   -0.2715 C   0  0  0  0  0  0  0  0  0  0  0  0
   -2.6350    0.8465   -0.5632 C   0  0  0  0  0  0  0  0  0  0  0  0
    3.4047    0.9088    0.2137 H   0  0  0  0  0  0  0  0  0  0  0  0
    1.8316    1.3775   -0.4483 H   0  0  0  0  0  0  0  0  0  0  0  0
    2.6415   -0.0877   -1.0368 H   0  0  0  0  0  0  0  0  0  0  0  0
    1.5932    0.3505    1.8042 H   0  0  0  0  0  0  0  0  0  0  0  0
    2.4354   -1.1055    1.2517 H   0  0  0  0  0  0  0  0  0  0  0  0
    0.0232   -1.5169    1.2675 H   0  0  0  0  0  0  0  0  0  0  0  0
    0.5947   -1.5102   -0.4206 H   0  0  0  0  0  0  0  0  0  0  0  0
   -2.1758   -0.9621    0.5067 H   0  0  0  0  0  0  0  0  0  0  0  0
   -1.5906   -0.9295   -1.1800 H   0  0  0  0  0  0  0  0  0  0  0  0
   -2.7691    1.4606    0.3335 H   0  0  0  0  0  0  0  0  0  0  0  0
   -2.1920    1.4926   -1.3283 H   0  0  0  0  0  0  0  0  0  0  0  0
   -3.6157    0.5094   -0.9103 H   0  0  0  0  0  0  0  0  0  0  0  0
  1  2  1  0
  2  3  1  0
  3  4  1  0
  4  5  1  0
  5  6  1  0
  1  7  1  0
  1  8  1  0
  1  9  1  0
  2 10  1  0
  2 11  1  0
  3 12  1  0
  3 13  1  0
  5 14  1  0
  5 15  1  0
  6 16  1  0
  6 17  1  0
  6 18  1  0
M  END
>  <Energy>  (2) 
1.5221628351088905

>  <Real charge>  (2) 
0

>  <Mult>  (2) 
1

$$$$
