mol_478 216
     RDKit          3D

 20 19  0  0  0  0  0  0  0  0999 V2000
   -3.1465   -0.6057   -0.2473 C   0  0  0  0  0  0  0  0  0  0  0  0
   -1.8853    0.1544   -0.6254 C   0  0  0  0  0  0  0  0  0  0  0  0
   -0.6669   -0.3687    0.1350 C   0  0  0  0  0  0  0  0  0  0  0  0
    0.5996    0.3986   -0.2482 C   0  0  0  0  0  0  0  0  0  0  0  0
    1.8191   -0.1244    0.5123 C   0  0  0  0  0  0  0  0  0  0  0  0
    3.0725    0.6424    0.1263 C   0  0  0  0  0  0  0  0  0  0  0  0
    4.6000   -0.0516    1.1138 Br  0  0  0  0  0  0  0  0  0  0  0  0
   -3.0472   -1.6708   -0.4799 H   0  0  0  0  0  0  0  0  0  0  0  0
   -3.3593   -0.5056    0.8219 H   0  0  0  0  0  0  0  0  0  0  0  0
   -4.0051   -0.2154   -0.8025 H   0  0  0  0  0  0  0  0  0  0  0  0
   -1.7191    0.0609   -1.7049 H   0  0  0  0  0  0  0  0  0  0  0  0
   -2.0295    1.2196   -0.4103 H   0  0  0  0  0  0  0  0  0  0  0  0
   -0.5297   -1.4354   -0.0803 H   0  0  0  0  0  0  0  0  0  0  0  0
   -0.8400   -0.2767    1.2142 H   0  0  0  0  0  0  0  0  0  0  0  0
    0.4622    1.4653   -0.0327 H   0  0  0  0  0  0  0  0  0  0  0  0
    0.7726    0.3063   -1.3274 H   0  0  0  0  0  0  0  0  0  0  0  0
    1.9530   -1.1927    0.3003 H   0  0  0  0  0  0  0  0  0  0  0  0
    1.6434   -0.0366    1.5918 H   0  0  0  0  0  0  0  0  0  0  0  0
    2.9961    1.7045    0.3751 H   0  0  0  0  0  0  0  0  0  0  0  0
    3.3102    0.5316   -0.9352 H   0  0  0  0  0  0  0  0  0  0  0  0
  1  2  1  0
  2  3  1  0
  3  4  1  0
  4  5  1  0
  5  6  1  0
  6  7  1  0
  1  8  1  0
  1  9  1  0
  1 10  1  0
  2 11  1  0
  2 12  1  0
  3 13  1  0
  3 14  1  0
  4 15  1  0
  4 16  1  0
  5 17  1  0
  5 18  1  0
  6 19  1  0
  6 20  1  0
M  END
>  <Energy>  (1) 
-2.768218380518716

>  <Real charge>  (1) 
0

>  <Mult>  (1) 
1

$$$$
mol_478 228
     RDKit          3D

 20 19  0  0  0  0  0  0  0  0999 V2000
    3.1690   -0.3360   -0.1194 C   0  0  0  0  0  0  0  0  0  0  0  0
    1.8798    0.4695   -0.1429 C   0  0  0  0  0  0  0  0  0  0  0  0
    0.6602   -0.4184    0.1030 C   0  0  0  0  0  0  0  0  0  0  0  0
   -0.6354    0.3960    0.0784 C   0  0  0  0  0  0  0  0  0  0  0  0
   -1.8562   -0.4973    0.3234 C   0  0  0  0  0  0  0  0  0  0  0  0
   -3.1734    0.2583    0.2402 C   0  0  0  0  0  0  0  0  0  0  0  0
   -3.4484    1.3747    1.8108 Br  0  0  0  0  0  0  0  0  0  0  0  0
    4.0281    0.3184   -0.2973 H   0  0  0  0  0  0  0  0  0  0  0  0
    3.1635   -1.1080   -0.8955 H   0  0  0  0  0  0  0  0  0  0  0  0
    3.3089   -0.8243    0.8503 H   0  0  0  0  0  0  0  0  0  0  0  0
    1.7863    0.9703   -1.1135 H   0  0  0  0  0  0  0  0  0  0  0  0
    1.9311    1.2524    0.6227 H   0  0  0  0  0  0  0  0  0  0  0  0
    0.7603   -0.9197    1.0735 H   0  0  0  0  0  0  0  0  0  0  0  0
    0.6165   -1.2024   -0.6628 H   0  0  0  0  0  0  0  0  0  0  0  0
   -0.7355    0.8943   -0.8936 H   0  0  0  0  0  0  0  0  0  0  0  0
   -0.5805    1.1818    0.8401 H   0  0  0  0  0  0  0  0  0  0  0  0
   -1.7615   -0.9997    1.2939 H   0  0  0  0  0  0  0  0  0  0  0  0
   -1.8678   -1.2848   -0.4405 H   0  0  0  0  0  0  0  0  0  0  0  0
   -4.0182   -0.4360    0.2220 H   0  0  0  0  0  0  0  0  0  0  0  0
   -3.2269    0.9109   -0.6353 H   0  0  0  0  0  0  0  0  0  0  0  0
  1  2  1  0
  2  3  1  0
  3  4  1  0
  4  5  1  0
  5  6  1  0
  6  7  1  0
  1  8  1  0
  1  9  1  0
  1 10  1  0
  2 11  1  0
  2 12  1  0
  3 13  1  0
  3 14  1  0
  4 15  1  0
  4 16  1  0
  5 17  1  0
  5 18  1  0
  6 19  1  0
  6 20  1  0
M  END
>  <Energy>  (2) 
-2.364894828600859

>  <Real charge>  (2) 
0

>  <Mult>  (2) 
1

$$$$
mol_478 97
     RDKit          3D

 20 19  0  0  0  0  0  0  0  0999 V2000
   -2.8550   -0.3023   -0.8474 C   0  0  0  0  0  0  0  0  0  0  0  0
   -1.9013    0.2085    0.2209 C   0  0  0  0  0  0  0  0  0  0  0  0
   -0.4623   -0.2281   -0.0575 C   0  0  0  0  0  0  0  0  0  0  0  0
    0.4923    0.2921    1.0196 C   0  0  0  0  0  0  0  0  0  0  0  0
    1.9301   -0.2051    0.8470 C   0  0  0  0  0  0  0  0  0  0  0  0
    2.5939    0.3203   -0.4153 C   0  0  0  0  0  0  0  0  0  0  0  0
    4.4537   -0.2600   -0.4684 Br  0  0  0  0  0  0  0  0  0  0  0  0
   -2.8462   -1.3961   -0.8906 H   0  0  0  0  0  0  0  0  0  0  0  0
   -2.5811    0.0831   -1.8347 H   0  0  0  0  0  0  0  0  0  0  0  0
   -3.8775    0.0208   -0.6284 H   0  0  0  0  0  0  0  0  0  0  0  0
   -2.2227   -0.1682    1.1989 H   0  0  0  0  0  0  0  0  0  0  0  0
   -1.9573    1.3026    0.2598 H   0  0  0  0  0  0  0  0  0  0  0  0
   -0.4120   -1.3230   -0.0959 H   0  0  0  0  0  0  0  0  0  0  0  0
   -0.1585    0.1461   -1.0415 H   0  0  0  0  0  0  0  0  0  0  0  0
    0.4811    1.3888    1.0265 H   0  0  0  0  0  0  0  0  0  0  0  0
    0.1336   -0.0336    2.0040 H   0  0  0  0  0  0  0  0  0  0  0  0
    2.5078    0.1126    1.7246 H   0  0  0  0  0  0  0  0  0  0  0  0
    1.9419   -1.3023    0.8514 H   0  0  0  0  0  0  0  0  0  0  0  0
    2.1311   -0.0690   -1.3252 H   0  0  0  0  0  0  0  0  0  0  0  0
    2.6082    1.4130   -0.4473 H   0  0  0  0  0  0  0  0  0  0  0  0
  1  2  1  0
  2  3  1  0
  3  4  1  0
  4  5  1  0
  5  6  1  0
  6  7  1  0
  1  8  1  0
  1  9  1  0
  1 10  1  0
  2 11  1  0
  2 12  1  0
  3 13  1  0
  3 14  1  0
  4 15  1  0
  4 16  1  0
  5 17  1  0
  5 18  1  0
  6 19  1  0
  6 20  1  0
M  END
>  <Energy>  (3) 
-2.0006775035906235

>  <Real charge>  (3) 
0

>  <Mult>  (3) 
1

$$$$
mol_478 226
     RDKit          3D

 20 19  0  0  0  0  0  0  0  0999 V2000
   -2.6972   -0.1021   -0.6171 C   0  0  0  0  0  0  0  0  0  0  0  0
   -1.9731   -0.3693    0.6933 C   0  0  0  0  0  0  0  0  0  0  0  0
   -0.5158   -0.7982    0.5099 C   0  0  0  0  0  0  0  0  0  0  0  0
    0.3679    0.2974   -0.0906 C   0  0  0  0  0  0  0  0  0  0  0  0
    1.8318   -0.1438   -0.1540 C   0  0  0  0  0  0  0  0  0  0  0  0
    2.7043    0.9458   -0.7539 C   0  0  0  0  0  0  0  0  0  0  0  0
    4.5557    0.3473   -0.8171 Br  0  0  0  0  0  0  0  0  0  0  0  0
   -2.2804    0.7656   -1.1366 H   0  0  0  0  0  0  0  0  0  0  0  0
   -2.6362   -0.9681   -1.2838 H   0  0  0  0  0  0  0  0  0  0  0  0
   -3.7553    0.1040   -0.4259 H   0  0  0  0  0  0  0  0  0  0  0  0
   -2.0224    0.5244    1.3262 H   0  0  0  0  0  0  0  0  0  0  0  0
   -2.5043   -1.1657    1.2281 H   0  0  0  0  0  0  0  0  0  0  0  0
   -0.1169   -1.0827    1.4915 H   0  0  0  0  0  0  0  0  0  0  0  0
   -0.4731   -1.6951   -0.1201 H   0  0  0  0  0  0  0  0  0  0  0  0
    0.0245    0.5448   -1.1014 H   0  0  0  0  0  0  0  0  0  0  0  0
    0.2855    1.2088    0.5138 H   0  0  0  0  0  0  0  0  0  0  0  0
    2.1842   -0.3925    0.8549 H   0  0  0  0  0  0  0  0  0  0  0  0
    1.9125   -1.0605   -0.7516 H   0  0  0  0  0  0  0  0  0  0  0  0
    2.4169    1.1812   -1.7823 H   0  0  0  0  0  0  0  0  0  0  0  0
    2.6913    1.8587   -0.1523 H   0  0  0  0  0  0  0  0  0  0  0  0
  1  2  1  0
  2  3  1  0
  3  4  1  0
  4  5  1  0
  5  6  1  0
  6  7  1  0
  1  8  1  0
  1  9  1  0
  1 10  1  0
  2 11  1  0
  2 12  1  0
  3 13  1  0
  3 14  1  0
  4 15  1  0
  4 16  1  0
  5 17  1  0
  5 18  1  0
  6 19  1  0
  6 20  1  0
M  END
>  <Energy>  (4) 
-1.9443291112125058

>  <Real charge>  (4) 
0

>  <Mult>  (4) 
1

$$$$
mol_478 200
     RDKit          3D

 20 19  0  0  0  0  0  0  0  0999 V2000
   -3.0014    0.4563   -0.0275 C   0  0  0  0  0  0  0  0  0  0  0  0
   -1.5910   -0.0681   -0.2513 C   0  0  0  0  0  0  0  0  0  0  0  0
   -0.7205    0.1275    0.9906 C   0  0  0  0  0  0  0  0  0  0  0  0
    0.6761   -0.4868    0.8582 C   0  0  0  0  0  0  0  0  0  0  0  0
    1.5430    0.1946   -0.2026 C   0  0  0  0  0  0  0  0  0  0  0  0
    2.9494   -0.3821   -0.2061 C   0  0  0  0  0  0  0  0  0  0  0  0
    4.0223    0.5054   -1.5669 Br  0  0  0  0  0  0  0  0  0  0  0  0
   -3.4897   -0.0703    0.7986 H   0  0  0  0  0  0  0  0  0  0  0  0
   -2.9896    1.5259    0.2051 H   0  0  0  0  0  0  0  0  0  0  0  0
   -3.6069    0.3108   -0.9276 H   0  0  0  0  0  0  0  0  0  0  0  0
   -1.1555    0.4558   -1.1087 H   0  0  0  0  0  0  0  0  0  0  0  0
   -1.6402   -1.1324   -0.5087 H   0  0  0  0  0  0  0  0  0  0  0  0
   -1.2169   -0.3366    1.8520 H   0  0  0  0  0  0  0  0  0  0  0  0
   -0.6320    1.1971    1.2167 H   0  0  0  0  0  0  0  0  0  0  0  0
    0.5875   -1.5566    0.6332 H   0  0  0  0  0  0  0  0  0  0  0  0
    1.1761   -0.4096    1.8319 H   0  0  0  0  0  0  0  0  0  0  0  0
    1.0933    0.0660   -1.1939 H   0  0  0  0  0  0  0  0  0  0  0  0
    1.5812    1.2736   -0.0079 H   0  0  0  0  0  0  0  0  0  0  0  0
    3.4606   -0.2224    0.7471 H   0  0  0  0  0  0  0  0  0  0  0  0
    2.9544   -1.4480   -0.4500 H   0  0  0  0  0  0  0  0  0  0  0  0
  1  2  1  0
  2  3  1  0
  3  4  1  0
  4  5  1  0
  5  6  1  0
  6  7  1  0
  1  8  1  0
  1  9  1  0
  1 10  1  0
  2 11  1  0
  2 12  1  0
  3 13  1  0
  3 14  1  0
  4 15  1  0
  4 16  1  0
  5 17  1  0
  5 18  1  0
  6 19  1  0
  6 20  1  0
M  END
>  <Energy>  (5) 
-1.8960206406956905

>  <Real charge>  (5) 
0

>  <Mult>  (5) 
1

$$$$
