mol_506 136
     RDKit          3D

 13 12  0  0  0  0  0  0  0  0999 V2000
   -2.0661   -0.2353   -0.2862 C   0  0  0  0  0  0  0  0  0  0  0  0
   -0.5556   -0.3608   -0.2113 C   0  0  0  0  0  0  0  0  0  0  0  0
   -0.0435    0.8134    0.4187 O   0  0  0  0  0  0  0  0  0  0  0  0
    1.3094    0.8958    0.5827 C   0  0  0  0  0  0  0  0  0  0  0  0
    2.2578    0.0195    0.2335 C   0  0  0  0  0  0  0  0  0  0  0  0
   -2.4940   -0.1245    0.7157 H   0  0  0  0  0  0  0  0  0  0  0  0
   -2.5073   -1.1149   -0.7634 H   0  0  0  0  0  0  0  0  0  0  0  0
   -2.3512    0.6560   -0.8550 H   0  0  0  0  0  0  0  0  0  0  0  0
   -0.1494   -0.4532   -1.2252 H   0  0  0  0  0  0  0  0  0  0  0  0
   -0.2949   -1.2488    0.3762 H   0  0  0  0  0  0  0  0  0  0  0  0
    1.5514    1.8344    1.0710 H   0  0  0  0  0  0  0  0  0  0  0  0
    3.3005    0.2414    0.4385 H   0  0  0  0  0  0  0  0  0  0  0  0
    2.0429   -0.9229   -0.2544 H   0  0  0  0  0  0  0  0  0  0  0  0
  1  2  1  0
  2  3  1  0
  3  4  1  0
  4  5  2  3
  1  6  1  0
  1  7  1  0
  1  8  1  0
  2  9  1  0
  2 10  1  0
  4 11  1  0
  5 12  1  0
  5 13  1  0
M  END
>  <Energy>  (1) 
5.1603311252805995

>  <Real charge>  (1) 
0

>  <Mult>  (1) 
1

$$$$
