mol_204 464
     RDKit          3D

 34 34  0  0  0  0  0  0  0  0999 V2000
   -3.6362    1.8441   -1.8980 C   0  0  0  0  0  0  0  0  0  0  0  0
   -3.3618    1.5434   -0.4387 C   0  0  0  0  0  0  0  0  0  0  0  0
   -2.0968    0.9135   -0.3384 O   0  0  0  0  0  0  0  0  0  0  0  0
   -1.6927    0.2210    1.0707 P   0  0  0  0  0  5  0  0  0  0  0  0
   -1.6237    1.3776    2.6289 S   0  0  0  0  0  0  0  0  0  0  0  0
   -2.7578   -1.0006    1.1291 O   0  0  0  0  0  0  0  0  0  0  0  0
   -2.5800   -1.9993    2.1202 C   0  0  0  0  0  0  0  0  0  0  0  0
   -3.5149   -3.1517    1.8155 C   0  0  0  0  0  0  0  0  0  0  0  0
   -0.3162   -0.5673    0.6696 O   0  0  0  0  0  0  0  0  0  0  0  0
    0.7796    0.2547    0.3207 N   0  0  0  0  0  0  0  0  0  0  0  0
    1.8543   -0.4216    0.0345 C   0  0  0  0  0  0  0  0  0  0  0  0
    1.7967   -1.8687    0.1124 C   0  0  0  0  0  0  0  0  0  0  0  0
    1.7759   -3.0301    0.1718 N   0  0  0  0  0  0  0  0  0  0  0  0
    3.1251    0.2349   -0.3602 C   0  0  0  0  0  0  0  0  0  0  0  0
    4.2696   -0.5024   -0.6982 C   0  0  0  0  0  0  0  0  0  0  0  0
    5.4466    0.1567   -1.0642 C   0  0  0  0  0  0  0  0  0  0  0  0
    5.4901    1.5495   -1.0953 C   0  0  0  0  0  0  0  0  0  0  0  0
    4.3582    2.2895   -0.7611 C   0  0  0  0  0  0  0  0  0  0  0  0
    3.1794    1.6365   -0.3949 C   0  0  0  0  0  0  0  0  0  0  0  0
   -3.6331    0.9220   -2.4886 H   0  0  0  0  0  0  0  0  0  0  0  0
   -4.6043    2.3380   -2.0196 H   0  0  0  0  0  0  0  0  0  0  0  0
   -2.8552    2.4903   -2.3124 H   0  0  0  0  0  0  0  0  0  0  0  0
   -4.1427    0.8887   -0.0398 H   0  0  0  0  0  0  0  0  0  0  0  0
   -3.3501    2.4738    0.1367 H   0  0  0  0  0  0  0  0  0  0  0  0
   -1.5434   -2.3499    2.1196 H   0  0  0  0  0  0  0  0  0  0  0  0
   -2.8131   -1.5804    3.1035 H   0  0  0  0  0  0  0  0  0  0  0  0
   -3.4132   -3.9447    2.5617 H   0  0  0  0  0  0  0  0  0  0  0  0
   -4.5555   -2.8110    1.8012 H   0  0  0  0  0  0  0  0  0  0  0  0
   -3.3026   -3.5686    0.8254 H   0  0  0  0  0  0  0  0  0  0  0  0
    4.2782   -1.5901   -0.6874 H   0  0  0  0  0  0  0  0  0  0  0  0
    6.3325   -0.4182   -1.3256 H   0  0  0  0  0  0  0  0  0  0  0  0
    6.4079    2.0590   -1.3800 H   0  0  0  0  0  0  0  0  0  0  0  0
    4.3919    3.3764   -0.7841 H   0  0  0  0  0  0  0  0  0  0  0  0
    2.3074    2.2350   -0.1360 H   0  0  0  0  0  0  0  0  0  0  0  0
  1  2  1  0
  2  3  1  0
  3  4  1  0
  4  5  2  0
  4  6  1  0
  6  7  1  0
  7  8  1  0
  4  9  1  0
  9 10  1  0
 10 11  2  3
 11 12  1  0
 12 13  3  0
 11 14  1  0
 14 15  2  0
 15 16  1  0
 16 17  2  0
 17 18  1  0
 18 19  2  0
 19 14  1  0
  1 20  1  0
  1 21  1  0
  1 22  1  0
  2 23  1  0
  2 24  1  0
  7 25  1  0
  7 26  1  0
  8 27  1  0
  8 28  1  0
  8 29  1  0
 15 30  1  0
 16 31  1  0
 17 32  1  0
 18 33  1  0
 19 34  1  0
M  END
>  <Energy>  (1) 
62.4148856793293

>  <Real charge>  (1) 
0

>  <Mult>  (1) 
1

$$$$
mol_204 7
     RDKit          3D

 34 34  0  0  0  0  0  0  0  0999 V2000
   -4.4621    2.3854   -0.8381 C   0  0  0  0  0  0  0  0  0  0  0  0
   -3.3422    1.6824   -1.5774 C   0  0  0  0  0  0  0  0  0  0  0  0
   -3.1860    0.3839   -1.0286 O   0  0  0  0  0  0  0  0  0  0  0  0
   -1.8351   -0.4404   -1.3830 P   0  0  0  0  0  5  0  0  0  0  0  0
   -1.5430   -0.8369   -3.2582 S   0  0  0  0  0  0  0  0  0  0  0  0
   -1.9830   -1.7353   -0.4192 O   0  0  0  0  0  0  0  0  0  0  0  0
   -2.3275   -1.5444    0.9410 C   0  0  0  0  0  0  0  0  0  0  0  0
   -2.0641   -2.8343    1.6906 C   0  0  0  0  0  0  0  0  0  0  0  0
   -0.6912    0.4532   -0.6262 O   0  0  0  0  0  0  0  0  0  0  0  0
    0.5862   -0.1444   -0.5305 N   0  0  0  0  0  0  0  0  0  0  0  0
    1.4844    0.6449   -0.0161 C   0  0  0  0  0  0  0  0  0  0  0  0
    1.0768    1.9775    0.3851 C   0  0  0  0  0  0  0  0  0  0  0  0
    0.7661    3.0476    0.7176 N   0  0  0  0  0  0  0  0  0  0  0  0
    2.8952    0.2274    0.1729 C   0  0  0  0  0  0  0  0  0  0  0  0
    3.8465    1.0688    0.7683 C   0  0  0  0  0  0  0  0  0  0  0  0
    5.1654    0.6346    0.9281 C   0  0  0  0  0  0  0  0  0  0  0  0
    5.5429   -0.6359    0.4967 C   0  0  0  0  0  0  0  0  0  0  0  0
    4.6046   -1.4777   -0.0962 C   0  0  0  0  0  0  0  0  0  0  0  0
    3.2854   -1.0496   -0.2582 C   0  0  0  0  0  0  0  0  0  0  0  0
   -4.2317    2.4588    0.2299 H   0  0  0  0  0  0  0  0  0  0  0  0
   -4.6205    3.3920   -1.2352 H   0  0  0  0  0  0  0  0  0  0  0  0
   -5.3960    1.8202   -0.9243 H   0  0  0  0  0  0  0  0  0  0  0  0
   -3.5913    1.5977   -2.6392 H   0  0  0  0  0  0  0  0  0  0  0  0
   -2.4127    2.2509   -1.4742 H   0  0  0  0  0  0  0  0  0  0  0  0
   -3.3879   -1.2829    1.0092 H   0  0  0  0  0  0  0  0  0  0  0  0
   -1.7352   -0.7345    1.3769 H   0  0  0  0  0  0  0  0  0  0  0  0
   -2.3264   -2.7324    2.7473 H   0  0  0  0  0  0  0  0  0  0  0  0
   -2.6446   -3.6568    1.2598 H   0  0  0  0  0  0  0  0  0  0  0  0
   -1.0083   -3.1151    1.6140 H   0  0  0  0  0  0  0  0  0  0  0  0
    3.5942    2.0673    1.1186 H   0  0  0  0  0  0  0  0  0  0  0  0
    5.9013    1.2898    1.3897 H   0  0  0  0  0  0  0  0  0  0  0  0
    6.5705   -0.9700    0.6213 H   0  0  0  0  0  0  0  0  0  0  0  0
    4.8993   -2.4683   -0.4352 H   0  0  0  0  0  0  0  0  0  0  0  0
    2.5700   -1.7235   -0.7273 H   0  0  0  0  0  0  0  0  0  0  0  0
  1  2  1  0
  2  3  1  0
  3  4  1  0
  4  5  2  0
  4  6  1  0
  6  7  1  0
  7  8  1  0
  4  9  1  0
  9 10  1  0
 10 11  2  3
 11 12  1  0
 12 13  3  0
 11 14  1  0
 14 15  2  0
 15 16  1  0
 16 17  2  0
 17 18  1  0
 18 19  2  0
 19 14  1  0
  1 20  1  0
  1 21  1  0
  1 22  1  0
  2 23  1  0
  2 24  1  0
  7 25  1  0
  7 26  1  0
  8 27  1  0
  8 28  1  0
  8 29  1  0
 15 30  1  0
 16 31  1  0
 17 32  1  0
 18 33  1  0
 19 34  1  0
M  END
>  <Energy>  (2) 
62.70126471275044

>  <Real charge>  (2) 
0

>  <Mult>  (2) 
1

$$$$
mol_204 248
     RDKit          3D

 34 34  0  0  0  0  0  0  0  0999 V2000
   -2.9197    3.2652   -2.0960 C   0  0  0  0  0  0  0  0  0  0  0  0
   -1.8959    2.3758   -1.4213 C   0  0  0  0  0  0  0  0  0  0  0  0
   -2.0121    2.5389   -0.0175 O   0  0  0  0  0  0  0  0  0  0  0  0
   -1.3248    1.4421    0.9595 P   0  0  0  0  0  5  0  0  0  0  0  0
   -1.3033    1.9241    2.8377 S   0  0  0  0  0  0  0  0  0  0  0  0
   -2.1266    0.0915    0.5539 O   0  0  0  0  0  0  0  0  0  0  0  0
   -3.4920   -0.0121    0.9211 C   0  0  0  0  0  0  0  0  0  0  0  0
   -4.1327   -1.1026    0.0875 C   0  0  0  0  0  0  0  0  0  0  0  0
    0.1267    1.2070    0.2419 O   0  0  0  0  0  0  0  0  0  0  0  0
    0.9030    0.1480    0.7653 N   0  0  0  0  0  0  0  0  0  0  0  0
    2.0011   -0.0587    0.0977 C   0  0  0  0  0  0  0  0  0  0  0  0
    2.2600    0.7638   -1.0684 C   0  0  0  0  0  0  0  0  0  0  0  0
    2.4786    1.4039   -2.0144 N   0  0  0  0  0  0  0  0  0  0  0  0
    2.9798   -1.1057    0.4810 C   0  0  0  0  0  0  0  0  0  0  0  0
    2.7348   -1.8712    1.6312 C   0  0  0  0  0  0  0  0  0  0  0  0
    3.6335   -2.8654    2.0233 C   0  0  0  0  0  0  0  0  0  0  0  0
    4.7820   -3.1029    1.2715 C   0  0  0  0  0  0  0  0  0  0  0  0
    5.0348   -2.3479    0.1276 C   0  0  0  0  0  0  0  0  0  0  0  0
    4.1390   -1.3511   -0.2697 C   0  0  0  0  0  0  0  0  0  0  0  0
   -2.8574    3.1763   -3.1841 H   0  0  0  0  0  0  0  0  0  0  0  0
   -3.9322    2.9968   -1.7767 H   0  0  0  0  0  0  0  0  0  0  0  0
   -2.7649    4.3127   -1.8173 H   0  0  0  0  0  0  0  0  0  0  0  0
   -0.8870    2.6642   -1.7316 H   0  0  0  0  0  0  0  0  0  0  0  0
   -2.0677    1.3320   -1.7007 H   0  0  0  0  0  0  0  0  0  0  0  0
   -3.5598   -0.2651    1.9834 H   0  0  0  0  0  0  0  0  0  0  0  0
   -4.0055    0.9390    0.7481 H   0  0  0  0  0  0  0  0  0  0  0  0
   -3.6210   -2.0582    0.2425 H   0  0  0  0  0  0  0  0  0  0  0  0
   -5.1888   -1.2216    0.3451 H   0  0  0  0  0  0  0  0  0  0  0  0
   -4.0533   -0.8681   -0.9793 H   0  0  0  0  0  0  0  0  0  0  0  0
    1.8452   -1.7009    2.2356 H   0  0  0  0  0  0  0  0  0  0  0  0
    3.4368   -3.4529    2.9173 H   0  0  0  0  0  0  0  0  0  0  0  0
    5.4818   -3.8769    1.5784 H   0  0  0  0  0  0  0  0  0  0  0  0
    5.9332   -2.5353   -0.4566 H   0  0  0  0  0  0  0  0  0  0  0  0
    4.3743   -0.7849   -1.1682 H   0  0  0  0  0  0  0  0  0  0  0  0
  1  2  1  0
  2  3  1  0
  3  4  1  0
  4  5  2  0
  4  6  1  0
  6  7  1  0
  7  8  1  0
  4  9  1  0
  9 10  1  0
 10 11  2  3
 11 12  1  0
 12 13  3  0
 11 14  1  0
 14 15  2  0
 15 16  1  0
 16 17  2  0
 17 18  1  0
 18 19  2  0
 19 14  1  0
  1 20  1  0
  1 21  1  0
  1 22  1  0
  2 23  1  0
  2 24  1  0
  7 25  1  0
  7 26  1  0
  8 27  1  0
  8 28  1  0
  8 29  1  0
 15 30  1  0
 16 31  1  0
 17 32  1  0
 18 33  1  0
 19 34  1  0
M  END
>  <Energy>  (3) 
62.91886731296105

>  <Real charge>  (3) 
0

>  <Mult>  (3) 
1

$$$$
mol_204 246
     RDKit          3D

 34 34  0  0  0  0  0  0  0  0999 V2000
   -2.3607    2.9793    0.5231 C   0  0  0  0  0  0  0  0  0  0  0  0
   -1.4836    1.8006    0.1527 C   0  0  0  0  0  0  0  0  0  0  0  0
   -2.2887    0.6360    0.1150 O   0  0  0  0  0  0  0  0  0  0  0  0
   -1.8093   -0.6321   -0.7735 P   0  0  0  0  0  5  0  0  0  0  0  0
   -1.7482   -0.3932   -2.7009 S   0  0  0  0  0  0  0  0  0  0  0  0
   -2.8340   -1.7719   -0.2437 O   0  0  0  0  0  0  0  0  0  0  0  0
   -4.2160   -1.6189   -0.5185 C   0  0  0  0  0  0  0  0  0  0  0  0
   -4.9891   -2.6016    0.3372 C   0  0  0  0  0  0  0  0  0  0  0  0
   -0.4313   -1.1081   -0.0293 O   0  0  0  0  0  0  0  0  0  0  0  0
    0.7195   -0.3285   -0.2899 N   0  0  0  0  0  0  0  0  0  0  0  0
    1.7999   -0.8161    0.2490 C   0  0  0  0  0  0  0  0  0  0  0  0
    1.6971   -2.0330    1.0314 C   0  0  0  0  0  0  0  0  0  0  0  0
    1.6553   -3.0024    1.6722 N   0  0  0  0  0  0  0  0  0  0  0  0
    3.1250   -0.1665    0.0910 C   0  0  0  0  0  0  0  0  0  0  0  0
    3.2358    0.9458   -0.7573 C   0  0  0  0  0  0  0  0  0  0  0  0
    4.4661    1.5836   -0.9296 C   0  0  0  0  0  0  0  0  0  0  0  0
    5.5932    1.1172   -0.2568 C   0  0  0  0  0  0  0  0  0  0  0  0
    5.4938    0.0130    0.5878 C   0  0  0  0  0  0  0  0  0  0  0  0
    4.2652   -0.6300    0.7636 C   0  0  0  0  0  0  0  0  0  0  0  0
   -2.8453    2.8113    1.4906 H   0  0  0  0  0  0  0  0  0  0  0  0
   -3.1592    3.1116   -0.2145 H   0  0  0  0  0  0  0  0  0  0  0  0
   -1.7739    3.9006    0.5775 H   0  0  0  0  0  0  0  0  0  0  0  0
   -1.0104    1.9811   -0.8167 H   0  0  0  0  0  0  0  0  0  0  0  0
   -0.7047    1.6674    0.9092 H   0  0  0  0  0  0  0  0  0  0  0  0
   -4.5366   -0.5970   -0.2939 H   0  0  0  0  0  0  0  0  0  0  0  0
   -4.3995   -1.8238   -1.5774 H   0  0  0  0  0  0  0  0  0  0  0  0
   -4.8002   -2.4185    1.4002 H   0  0  0  0  0  0  0  0  0  0  0  0
   -6.0636   -2.5207    0.1506 H   0  0  0  0  0  0  0  0  0  0  0  0
   -4.6706   -3.6284    0.1293 H   0  0  0  0  0  0  0  0  0  0  0  0
    2.3702    1.3237   -1.2986 H   0  0  0  0  0  0  0  0  0  0  0  0
    4.5448    2.4428   -1.5918 H   0  0  0  0  0  0  0  0  0  0  0  0
    6.5515    1.6135   -0.3926 H   0  0  0  0  0  0  0  0  0  0  0  0
    6.3763   -0.3496    1.1107 H   0  0  0  0  0  0  0  0  0  0  0  0
    4.2311   -1.4872    1.4326 H   0  0  0  0  0  0  0  0  0  0  0  0
  1  2  1  0
  2  3  1  0
  3  4  1  0
  4  5  2  0
  4  6  1  0
  6  7  1  0
  7  8  1  0
  4  9  1  0
  9 10  1  0
 10 11  2  3
 11 12  1  0
 12 13  3  0
 11 14  1  0
 14 15  2  0
 15 16  1  0
 16 17  2  0
 17 18  1  0
 18 19  2  0
 19 14  1  0
  1 20  1  0
  1 21  1  0
  1 22  1  0
  2 23  1  0
  2 24  1  0
  7 25  1  0
  7 26  1  0
  8 27  1  0
  8 28  1  0
  8 29  1  0
 15 30  1  0
 16 31  1  0
 17 32  1  0
 18 33  1  0
 19 34  1  0
M  END
>  <Energy>  (4) 
62.92513608339304

>  <Real charge>  (4) 
0

>  <Mult>  (4) 
1

$$$$
mol_204 310
     RDKit          3D

 34 34  0  0  0  0  0  0  0  0999 V2000
   -4.1407   -3.0535    1.1846 C   0  0  0  0  0  0  0  0  0  0  0  0
   -3.0778   -2.0733    1.6369 C   0  0  0  0  0  0  0  0  0  0  0  0
   -3.2212   -0.8761    0.8915 O   0  0  0  0  0  0  0  0  0  0  0  0
   -2.0102    0.2024    0.9211 P   0  0  0  0  0  5  0  0  0  0  0  0
   -1.6083    0.9582    2.6652 S   0  0  0  0  0  0  0  0  0  0  0  0
   -2.5296    1.2301   -0.2183 O   0  0  0  0  0  0  0  0  0  0  0  0
   -1.6555    2.2330   -0.7024 C   0  0  0  0  0  0  0  0  0  0  0  0
   -2.4879    3.3657   -1.2681 C   0  0  0  0  0  0  0  0  0  0  0  0
   -0.8264   -0.6318    0.1587 O   0  0  0  0  0  0  0  0  0  0  0  0
    0.4120    0.0329    0.0072 N   0  0  0  0  0  0  0  0  0  0  0  0
    1.3497   -0.7381   -0.4643 C   0  0  0  0  0  0  0  0  0  0  0  0
    1.0229   -2.1207   -0.7564 C   0  0  0  0  0  0  0  0  0  0  0  0
    0.7858   -3.2337   -0.9952 N   0  0  0  0  0  0  0  0  0  0  0  0
    2.7309   -0.2523   -0.7038 C   0  0  0  0  0  0  0  0  0  0  0  0
    3.0647    1.0543   -0.3161 C   0  0  0  0  0  0  0  0  0  0  0  0
    4.3545    1.5460   -0.5266 C   0  0  0  0  0  0  0  0  0  0  0  0
    5.3191    0.7389   -1.1256 C   0  0  0  0  0  0  0  0  0  0  0  0
    4.9975   -0.5604   -1.5143 C   0  0  0  0  0  0  0  0  0  0  0  0
    3.7083   -1.0584   -1.3055 C   0  0  0  0  0  0  0  0  0  0  0  0
   -4.0689   -3.9918    1.7416 H   0  0  0  0  0  0  0  0  0  0  0  0
   -4.0367   -3.2681    0.1158 H   0  0  0  0  0  0  0  0  0  0  0  0
   -5.1410   -2.6322    1.3291 H   0  0  0  0  0  0  0  0  0  0  0  0
   -2.0836   -2.5020    1.4774 H   0  0  0  0  0  0  0  0  0  0  0  0
   -3.2027   -1.8533    2.7013 H   0  0  0  0  0  0  0  0  0  0  0  0
   -1.0296    1.8052   -1.4911 H   0  0  0  0  0  0  0  0  0  0  0  0
   -1.0108    2.6102    0.0964 H   0  0  0  0  0  0  0  0  0  0  0  0
   -1.8488    4.1580   -1.6676 H   0  0  0  0  0  0  0  0  0  0  0  0
   -3.1360    3.7907   -0.4945 H   0  0  0  0  0  0  0  0  0  0  0  0
   -3.1421    3.0026   -2.0677 H   0  0  0  0  0  0  0  0  0  0  0  0
    2.3293    1.7013    0.1589 H   0  0  0  0  0  0  0  0  0  0  0  0
    4.6069    2.5588   -0.2204 H   0  0  0  0  0  0  0  0  0  0  0  0
    6.3240    1.1223   -1.2883 H   0  0  0  0  0  0  0  0  0  0  0  0
    5.7536   -1.1882   -1.9812 H   0  0  0  0  0  0  0  0  0  0  0  0
    3.4989   -2.0769   -1.6253 H   0  0  0  0  0  0  0  0  0  0  0  0
  1  2  1  0
  2  3  1  0
  3  4  1  0
  4  5  2  0
  4  6  1  0
  6  7  1  0
  7  8  1  0
  4  9  1  0
  9 10  1  0
 10 11  2  3
 11 12  1  0
 12 13  3  0
 11 14  1  0
 14 15  2  0
 15 16  1  0
 16 17  2  0
 17 18  1  0
 18 19  2  0
 19 14  1  0
  1 20  1  0
  1 21  1  0
  1 22  1  0
  2 23  1  0
  2 24  1  0
  7 25  1  0
  7 26  1  0
  8 27  1  0
  8 28  1  0
  8 29  1  0
 15 30  1  0
 16 31  1  0
 17 32  1  0
 18 33  1  0
 19 34  1  0
M  END
>  <Energy>  (5) 
62.9445845204003

>  <Real charge>  (5) 
0

>  <Mult>  (5) 
1

$$$$
mol_204 417
     RDKit          3D

 34 34  0  0  0  0  0  0  0  0999 V2000
   -2.5618   -2.6251    0.2031 C   0  0  0  0  0  0  0  0  0  0  0  0
   -2.5681   -1.5449    1.2650 C   0  0  0  0  0  0  0  0  0  0  0  0
   -2.4733   -0.2840    0.6247 O   0  0  0  0  0  0  0  0  0  0  0  0
   -1.9522    0.9810    1.4965 P   0  0  0  0  0  5  0  0  0  0  0  0
   -3.0369    1.4830    3.0227 S   0  0  0  0  0  0  0  0  0  0  0  0
   -1.7625    2.1125    0.3506 O   0  0  0  0  0  0  0  0  0  0  0  0
   -2.9103    2.5597   -0.3488 C   0  0  0  0  0  0  0  0  0  0  0  0
   -2.4592    3.3899   -1.5332 C   0  0  0  0  0  0  0  0  0  0  0  0
   -0.3998    0.5806    1.8339 O   0  0  0  0  0  0  0  0  0  0  0  0
    0.3806    0.1536    0.7329 N   0  0  0  0  0  0  0  0  0  0  0  0
    1.6296   -0.0506    1.0356 C   0  0  0  0  0  0  0  0  0  0  0  0
    2.0545    0.1639    2.4050 C   0  0  0  0  0  0  0  0  0  0  0  0
    2.4320    0.3173    3.4940 N   0  0  0  0  0  0  0  0  0  0  0  0
    2.6243   -0.4992    0.0294 C   0  0  0  0  0  0  0  0  0  0  0  0
    3.9664   -0.7340    0.3628 C   0  0  0  0  0  0  0  0  0  0  0  0
    4.8692   -1.1577   -0.6165 C   0  0  0  0  0  0  0  0  0  0  0  0
    4.4418   -1.3492   -1.9292 C   0  0  0  0  0  0  0  0  0  0  0  0
    3.1108   -1.1181   -2.2693 C   0  0  0  0  0  0  0  0  0  0  0  0
    2.2042   -0.6948   -1.2952 C   0  0  0  0  0  0  0  0  0  0  0  0
   -1.6395   -2.5801   -0.3857 H   0  0  0  0  0  0  0  0  0  0  0  0
   -3.3930   -2.4848   -0.4958 H   0  0  0  0  0  0  0  0  0  0  0  0
   -2.6440   -3.6175    0.6551 H   0  0  0  0  0  0  0  0  0  0  0  0
   -3.5008   -1.5849    1.8356 H   0  0  0  0  0  0  0  0  0  0  0  0
   -1.7281   -1.6924    1.9509 H   0  0  0  0  0  0  0  0  0  0  0  0
   -3.5285    3.1678    0.3181 H   0  0  0  0  0  0  0  0  0  0  0  0
   -3.4980    1.7044   -0.6962 H   0  0  0  0  0  0  0  0  0  0  0  0
   -1.8605    4.2441   -1.2000 H   0  0  0  0  0  0  0  0  0  0  0  0
   -1.8244    2.7968   -2.1998 H   0  0  0  0  0  0  0  0  0  0  0  0
   -3.3179    3.7602   -2.1001 H   0  0  0  0  0  0  0  0  0  0  0  0
    4.3414   -0.5963    1.3746 H   0  0  0  0  0  0  0  0  0  0  0  0
    5.9096   -1.3382   -0.3543 H   0  0  0  0  0  0  0  0  0  0  0  0
    5.1477   -1.6783   -2.6885 H   0  0  0  0  0  0  0  0  0  0  0  0
    2.7776   -1.2662   -3.2940 H   0  0  0  0  0  0  0  0  0  0  0  0
    1.1693   -0.5183   -1.5836 H   0  0  0  0  0  0  0  0  0  0  0  0
  1  2  1  0
  2  3  1  0
  3  4  1  0
  4  5  2  0
  4  6  1  0
  6  7  1  0
  7  8  1  0
  4  9  1  0
  9 10  1  0
 10 11  2  3
 11 12  1  0
 12 13  3  0
 11 14  1  0
 14 15  2  0
 15 16  1  0
 16 17  2  0
 17 18  1  0
 18 19  2  0
 19 14  1  0
  1 20  1  0
  1 21  1  0
  1 22  1  0
  2 23  1  0
  2 24  1  0
  7 25  1  0
  7 26  1  0
  8 27  1  0
  8 28  1  0
  8 29  1  0
 15 30  1  0
 16 31  1  0
 17 32  1  0
 18 33  1  0
 19 34  1  0
M  END
>  <Energy>  (6) 
63.08351060275775

>  <Real charge>  (6) 
0

>  <Mult>  (6) 
1

$$$$
mol_204 407
     RDKit          3D

 34 34  0  0  0  0  0  0  0  0999 V2000
    3.7707    0.5055    1.4175 C   0  0  0  0  0  0  0  0  0  0  0  0
    2.5992    0.7740    2.3395 C   0  0  0  0  0  0  0  0  0  0  0  0
    1.7467   -0.3574    2.3262 O   0  0  0  0  0  0  0  0  0  0  0  0
    0.2043   -0.1646    2.7870 P   0  0  0  0  0  5  0  0  0  0  0  0
   -0.0735    0.4315    4.6107 S   0  0  0  0  0  0  0  0  0  0  0  0
   -0.4084   -1.6175    2.4098 O   0  0  0  0  0  0  0  0  0  0  0  0
   -1.8091   -1.8034    2.5105 C   0  0  0  0  0  0  0  0  0  0  0  0
   -2.2013   -2.9862    1.6492 C   0  0  0  0  0  0  0  0  0  0  0  0
   -0.4073    0.8036    1.6139 O   0  0  0  0  0  0  0  0  0  0  0  0
   -0.2025    0.3652    0.2843 N   0  0  0  0  0  0  0  0  0  0  0  0
   -0.7056    1.1665   -0.6089 C   0  0  0  0  0  0  0  0  0  0  0  0
   -1.3877    2.3631   -0.1572 C   0  0  0  0  0  0  0  0  0  0  0  0
   -1.9410    3.3312    0.1718 N   0  0  0  0  0  0  0  0  0  0  0  0
   -0.6027    0.8940   -2.0638 C   0  0  0  0  0  0  0  0  0  0  0  0
   -1.1464    1.7602   -3.0236 C   0  0  0  0  0  0  0  0  0  0  0  0
   -1.0262    1.4643   -4.3843 C   0  0  0  0  0  0  0  0  0  0  0  0
   -0.3659    0.3076   -4.7952 C   0  0  0  0  0  0  0  0  0  0  0  0
    0.1771   -0.5583   -3.8486 C   0  0  0  0  0  0  0  0  0  0  0  0
    0.0602   -0.2680   -2.4878 C   0  0  0  0  0  0  0  0  0  0  0  0
    4.3156   -0.3894    1.7356 H   0  0  0  0  0  0  0  0  0  0  0  0
    3.4215    0.3198    0.3962 H   0  0  0  0  0  0  0  0  0  0  0  0
    4.4608    1.3537    1.4058 H   0  0  0  0  0  0  0  0  0  0  0  0
    2.0594    1.6655    2.0048 H   0  0  0  0  0  0  0  0  0  0  0  0
    2.9555    0.9398    3.3606 H   0  0  0  0  0  0  0  0  0  0  0  0
   -2.0687   -1.9977    3.5555 H   0  0  0  0  0  0  0  0  0  0  0  0
   -2.3406   -0.9072    2.1755 H   0  0  0  0  0  0  0  0  0  0  0  0
   -1.6703   -3.8892    1.9679 H   0  0  0  0  0  0  0  0  0  0  0  0
   -1.9280   -2.8080    0.6038 H   0  0  0  0  0  0  0  0  0  0  0  0
   -3.2777   -3.1708    1.7060 H   0  0  0  0  0  0  0  0  0  0  0  0
   -1.6693    2.6730   -2.7463 H   0  0  0  0  0  0  0  0  0  0  0  0
   -1.4491    2.1383   -5.1264 H   0  0  0  0  0  0  0  0  0  0  0  0
   -0.2744    0.0808   -5.8551 H   0  0  0  0  0  0  0  0  0  0  0  0
    0.6924   -1.4609   -4.1692 H   0  0  0  0  0  0  0  0  0  0  0  0
    0.4923   -0.9592   -1.7657 H   0  0  0  0  0  0  0  0  0  0  0  0
  1  2  1  0
  2  3  1  0
  3  4  1  0
  4  5  2  0
  4  6  1  0
  6  7  1  0
  7  8  1  0
  4  9  1  0
  9 10  1  0
 10 11  2  3
 11 12  1  0
 12 13  3  0
 11 14  1  0
 14 15  2  0
 15 16  1  0
 16 17  2  0
 17 18  1  0
 18 19  2  0
 19 14  1  0
  1 20  1  0
  1 21  1  0
  1 22  1  0
  2 23  1  0
  2 24  1  0
  7 25  1  0
  7 26  1  0
  8 27  1  0
  8 28  1  0
  8 29  1  0
 15 30  1  0
 16 31  1  0
 17 32  1  0
 18 33  1  0
 19 34  1  0
M  END
>  <Energy>  (7) 
63.11309763767521

>  <Real charge>  (7) 
0

>  <Mult>  (7) 
1

$$$$
mol_204 478
     RDKit          3D

 34 34  0  0  0  0  0  0  0  0999 V2000
   -4.8023   -2.1590   -0.9929 C   0  0  0  0  0  0  0  0  0  0  0  0
   -3.7190   -2.3432    0.0499 C   0  0  0  0  0  0  0  0  0  0  0  0
   -2.4874   -1.9012   -0.4973 O   0  0  0  0  0  0  0  0  0  0  0  0
   -1.2799   -1.5376    0.5221 P   0  0  0  0  0  5  0  0  0  0  0  0
   -0.7221   -2.9556    1.7225 S   0  0  0  0  0  0  0  0  0  0  0  0
   -1.8413   -0.1933    1.2347 O   0  0  0  0  0  0  0  0  0  0  0  0
   -2.1204    0.9443    0.4370 C   0  0  0  0  0  0  0  0  0  0  0  0
   -3.0631    1.8494    1.2030 C   0  0  0  0  0  0  0  0  0  0  0  0
   -0.1496   -0.9678   -0.5166 O   0  0  0  0  0  0  0  0  0  0  0  0
    0.9931   -0.3914    0.0856 N   0  0  0  0  0  0  0  0  0  0  0  0
    1.9081   -0.0457   -0.7731 C   0  0  0  0  0  0  0  0  0  0  0  0
    1.6466   -0.2574   -2.1836 C   0  0  0  0  0  0  0  0  0  0  0  0
    1.4623   -0.4007   -3.3228 N   0  0  0  0  0  0  0  0  0  0  0  0
    3.1965    0.5621   -0.3571 C   0  0  0  0  0  0  0  0  0  0  0  0
    3.4620    0.7117    1.0126 C   0  0  0  0  0  0  0  0  0  0  0  0
    4.6631    1.2801    1.4418 C   0  0  0  0  0  0  0  0  0  0  0  0
    5.6068    1.7034    0.5086 C   0  0  0  0  0  0  0  0  0  0  0  0
    5.3529    1.5589   -0.8541 C   0  0  0  0  0  0  0  0  0  0  0  0
    4.1527    0.9902   -1.2898 C   0  0  0  0  0  0  0  0  0  0  0  0
   -5.7707   -2.4968   -0.6136 H   0  0  0  0  0  0  0  0  0  0  0  0
   -4.5630   -2.7207   -1.9019 H   0  0  0  0  0  0  0  0  0  0  0  0
   -4.8834   -1.1057   -1.2813 H   0  0  0  0  0  0  0  0  0  0  0  0
   -3.9656   -1.7682    0.9480 H   0  0  0  0  0  0  0  0  0  0  0  0
   -3.6329   -3.4006    0.3172 H   0  0  0  0  0  0  0  0  0  0  0  0
   -2.5785    0.6487   -0.5116 H   0  0  0  0  0  0  0  0  0  0  0  0
   -1.1852    1.4716    0.2271 H   0  0  0  0  0  0  0  0  0  0  0  0
   -2.6202    2.1483    2.1588 H   0  0  0  0  0  0  0  0  0  0  0  0
   -3.9964    1.3252    1.4342 H   0  0  0  0  0  0  0  0  0  0  0  0
   -3.2968    2.7482    0.6256 H   0  0  0  0  0  0  0  0  0  0  0  0
    2.7412    0.3839    1.7601 H   0  0  0  0  0  0  0  0  0  0  0  0
    4.8622    1.3897    2.5055 H   0  0  0  0  0  0  0  0  0  0  0  0
    6.5426    2.1447    0.8441 H   0  0  0  0  0  0  0  0  0  0  0  0
    6.0929    1.8890   -1.5803 H   0  0  0  0  0  0  0  0  0  0  0  0
    3.9948    0.8956   -2.3620 H   0  0  0  0  0  0  0  0  0  0  0  0
  1  2  1  0
  2  3  1  0
  3  4  1  0
  4  5  2  0
  4  6  1  0
  6  7  1  0
  7  8  1  0
  4  9  1  0
  9 10  1  0
 10 11  2  3
 11 12  1  0
 12 13  3  0
 11 14  1  0
 14 15  2  0
 15 16  1  0
 16 17  2  0
 17 18  1  0
 18 19  2  0
 19 14  1  0
  1 20  1  0
  1 21  1  0
  1 22  1  0
  2 23  1  0
  2 24  1  0
  7 25  1  0
  7 26  1  0
  8 27  1  0
  8 28  1  0
  8 29  1  0
 15 30  1  0
 16 31  1  0
 17 32  1  0
 18 33  1  0
 19 34  1  0
M  END
>  <Energy>  (8) 
63.12638138747882

>  <Real charge>  (8) 
0

>  <Mult>  (8) 
1

$$$$
mol_204 87
     RDKit          3D

 34 34  0  0  0  0  0  0  0  0999 V2000
   -1.6312    2.5808   -1.5330 C   0  0  0  0  0  0  0  0  0  0  0  0
   -1.9292    2.3600   -0.0640 C   0  0  0  0  0  0  0  0  0  0  0  0
   -2.6627    1.1573    0.0780 O   0  0  0  0  0  0  0  0  0  0  0  0
   -2.1367    0.0035    1.0853 P   0  0  0  0  0  5  0  0  0  0  0  0
   -1.8339    0.5174    2.9344 S   0  0  0  0  0  0  0  0  0  0  0  0
   -3.2917   -1.1114    0.8528 O   0  0  0  0  0  0  0  0  0  0  0  0
   -3.1149   -2.3966    1.4243 C   0  0  0  0  0  0  0  0  0  0  0  0
   -4.1138   -3.3460    0.7949 C   0  0  0  0  0  0  0  0  0  0  0  0
   -0.8901   -0.6620    0.2601 O   0  0  0  0  0  0  0  0  0  0  0  0
    0.3006    0.0952    0.1946 N   0  0  0  0  0  0  0  0  0  0  0  0
    1.2720   -0.5335   -0.4026 C   0  0  0  0  0  0  0  0  0  0  0  0
    1.0243   -1.8749   -0.8956 C   0  0  0  0  0  0  0  0  0  0  0  0
    0.8517   -2.9526   -1.2966 N   0  0  0  0  0  0  0  0  0  0  0  0
    2.6132    0.0728   -0.5889 C   0  0  0  0  0  0  0  0  0  0  0  0
    2.8678    1.3351   -0.0314 C   0  0  0  0  0  0  0  0  0  0  0  0
    4.1178    1.9376   -0.1879 C   0  0  0  0  0  0  0  0  0  0  0  0
    5.1212    1.2861   -0.9015 C   0  0  0  0  0  0  0  0  0  0  0  0
    4.8783    0.0321   -1.4592 C   0  0  0  0  0  0  0  0  0  0  0  0
    3.6293   -0.5763   -1.3054 C   0  0  0  0  0  0  0  0  0  0  0  0
   -1.0386    1.7534   -1.9365 H   0  0  0  0  0  0  0  0  0  0  0  0
   -2.5590    2.6198   -2.1133 H   0  0  0  0  0  0  0  0  0  0  0  0
   -1.0817    3.5143   -1.6834 H   0  0  0  0  0  0  0  0  0  0  0  0
   -2.5449    3.1792    0.3202 H   0  0  0  0  0  0  0  0  0  0  0  0
   -0.9996    2.3424    0.5112 H   0  0  0  0  0  0  0  0  0  0  0  0
   -2.0965   -2.7544    1.2443 H   0  0  0  0  0  0  0  0  0  0  0  0
   -3.2850   -2.3386    2.5035 H   0  0  0  0  0  0  0  0  0  0  0  0
   -5.1375   -2.9936    0.9588 H   0  0  0  0  0  0  0  0  0  0  0  0
   -3.9647   -3.3989   -0.2886 H   0  0  0  0  0  0  0  0  0  0  0  0
   -4.0149   -4.3510    1.2144 H   0  0  0  0  0  0  0  0  0  0  0  0
    2.1008    1.8609    0.5344 H   0  0  0  0  0  0  0  0  0  0  0  0
    4.3087    2.9150    0.2496 H   0  0  0  0  0  0  0  0  0  0  0  0
    6.0949    1.7556   -1.0222 H   0  0  0  0  0  0  0  0  0  0  0  0
    5.6645   -0.4742   -2.0154 H   0  0  0  0  0  0  0  0  0  0  0  0
    3.4813   -1.5545   -1.7578 H   0  0  0  0  0  0  0  0  0  0  0  0
  1  2  1  0
  2  3  1  0
  3  4  1  0
  4  5  2  0
  4  6  1  0
  6  7  1  0
  7  8  1  0
  4  9  1  0
  9 10  1  0
 10 11  2  3
 11 12  1  0
 12 13  3  0
 11 14  1  0
 14 15  2  0
 15 16  1  0
 16 17  2  0
 17 18  1  0
 18 19  2  0
 19 14  1  0
  1 20  1  0
  1 21  1  0
  1 22  1  0
  2 23  1  0
  2 24  1  0
  7 25  1  0
  7 26  1  0
  8 27  1  0
  8 28  1  0
  8 29  1  0
 15 30  1  0
 16 31  1  0
 17 32  1  0
 18 33  1  0
 19 34  1  0
M  END
>  <Energy>  (9) 
63.20616943219993

>  <Real charge>  (9) 
0

>  <Mult>  (9) 
1

$$$$
mol_204 540
     RDKit          3D

 34 34  0  0  0  0  0  0  0  0999 V2000
   -3.7876    3.6629    0.6460 C   0  0  0  0  0  0  0  0  0  0  0  0
   -3.0074    2.3644    0.6113 C   0  0  0  0  0  0  0  0  0  0  0  0
   -2.8667    1.9598   -0.7393 O   0  0  0  0  0  0  0  0  0  0  0  0
   -1.9686    0.6544   -1.0854 P   0  0  0  0  0  5  0  0  0  0  0  0
   -1.9414    0.2038   -2.9721 S   0  0  0  0  0  0  0  0  0  0  0  0
   -2.6071   -0.4422   -0.0769 O   0  0  0  0  0  0  0  0  0  0  0  0
   -1.9678   -1.6966    0.0775 C   0  0  0  0  0  0  0  0  0  0  0  0
   -2.9903   -2.6997    0.5717 C   0  0  0  0  0  0  0  0  0  0  0  0
   -0.5435    1.0376   -0.3783 O   0  0  0  0  0  0  0  0  0  0  0  0
    0.5028    0.0990   -0.5267 N   0  0  0  0  0  0  0  0  0  0  0  0
    1.6213    0.4929    0.0117 C   0  0  0  0  0  0  0  0  0  0  0  0
    1.6429    1.7706    0.6975 C   0  0  0  0  0  0  0  0  0  0  0  0
    1.6793    2.7842    1.2662 N   0  0  0  0  0  0  0  0  0  0  0  0
    2.8593   -0.3226   -0.0448 C   0  0  0  0  0  0  0  0  0  0  0  0
    2.8547   -1.5068   -0.7975 C   0  0  0  0  0  0  0  0  0  0  0  0
    4.0010   -2.3007   -0.8725 C   0  0  0  0  0  0  0  0  0  0  0  0
    5.1584   -1.9194   -0.1974 C   0  0  0  0  0  0  0  0  0  0  0  0
    5.1732   -0.7447    0.5524 C   0  0  0  0  0  0  0  0  0  0  0  0
    4.0292    0.0545    0.6307 C   0  0  0  0  0  0  0  0  0  0  0  0
   -4.7725    3.5337    0.1850 H   0  0  0  0  0  0  0  0  0  0  0  0
   -3.9220    4.0102    1.6742 H   0  0  0  0  0  0  0  0  0  0  0  0
   -3.2683    4.4400    0.0755 H   0  0  0  0  0  0  0  0  0  0  0  0
   -2.0224    2.5119    1.0637 H   0  0  0  0  0  0  0  0  0  0  0  0
   -3.5450    1.5937    1.1716 H   0  0  0  0  0  0  0  0  0  0  0  0
   -1.5404   -2.0385   -0.8693 H   0  0  0  0  0  0  0  0  0  0  0  0
   -1.1646   -1.5951    0.8132 H   0  0  0  0  0  0  0  0  0  0  0  0
   -2.5334   -3.6822    0.7195 H   0  0  0  0  0  0  0  0  0  0  0  0
   -3.8123   -2.7963   -0.1452 H   0  0  0  0  0  0  0  0  0  0  0  0
   -3.4302   -2.3684    1.5182 H   0  0  0  0  0  0  0  0  0  0  0  0
    1.9642   -1.8212   -1.3393 H   0  0  0  0  0  0  0  0  0  0  0  0
    3.9911   -3.2152   -1.4613 H   0  0  0  0  0  0  0  0  0  0  0  0
    6.0513   -2.5376   -0.2578 H   0  0  0  0  0  0  0  0  0  0  0  0
    6.0795   -0.4492    1.0770 H   0  0  0  0  0  0  0  0  0  0  0  0
    4.0834    0.9626    1.2272 H   0  0  0  0  0  0  0  0  0  0  0  0
  1  2  1  0
  2  3  1  0
  3  4  1  0
  4  5  2  0
  4  6  1  0
  6  7  1  0
  7  8  1  0
  4  9  1  0
  9 10  1  0
 10 11  2  3
 11 12  1  0
 12 13  3  0
 11 14  1  0
 14 15  2  0
 15 16  1  0
 16 17  2  0
 17 18  1  0
 18 19  2  0
 19 14  1  0
  1 20  1  0
  1 21  1  0
  1 22  1  0
  2 23  1  0
  2 24  1  0
  7 25  1  0
  7 26  1  0
  8 27  1  0
  8 28  1  0
  8 29  1  0
 15 30  1  0
 16 31  1  0
 17 32  1  0
 18 33  1  0
 19 34  1  0
M  END
>  <Energy>  (10) 
63.23312352489112

>  <Real charge>  (10) 
0

>  <Mult>  (10) 
1

$$$$
mol_204 487
     RDKit          3D

 34 34  0  0  0  0  0  0  0  0999 V2000
   -4.7659    2.7171    1.6081 C   0  0  0  0  0  0  0  0  0  0  0  0
   -3.9200    2.5002    0.3700 C   0  0  0  0  0  0  0  0  0  0  0  0
   -2.6204    2.1061    0.7753 O   0  0  0  0  0  0  0  0  0  0  0  0
   -1.6128    1.4978   -0.3404 P   0  0  0  0  0  5  0  0  0  0  0  0
   -1.1621    2.6969   -1.8016 S   0  0  0  0  0  0  0  0  0  0  0  0
   -2.3806    0.1213   -0.7166 O   0  0  0  0  0  0  0  0  0  0  0  0
   -1.8034   -0.7757   -1.6486 C   0  0  0  0  0  0  0  0  0  0  0  0
   -1.6771   -2.1399   -1.0017 C   0  0  0  0  0  0  0  0  0  0  0  0
   -0.3921    0.9849    0.6215 O   0  0  0  0  0  0  0  0  0  0  0  0
    0.6920    0.3488   -0.0245 N   0  0  0  0  0  0  0  0  0  0  0  0
    1.6426    0.0015    0.7946 C   0  0  0  0  0  0  0  0  0  0  0  0
    1.4781    0.2823    2.2080 C   0  0  0  0  0  0  0  0  0  0  0  0
    1.3819    0.4832    3.3492 N   0  0  0  0  0  0  0  0  0  0  0  0
    2.8797   -0.6736    0.3293 C   0  0  0  0  0  0  0  0  0  0  0  0
    3.8577   -1.1329    1.2236 C   0  0  0  0  0  0  0  0  0  0  0  0
    5.0070   -1.7663    0.7425 C   0  0  0  0  0  0  0  0  0  0  0  0
    5.1884   -1.9446   -0.6278 C   0  0  0  0  0  0  0  0  0  0  0  0
    4.2226   -1.4907   -1.5233 C   0  0  0  0  0  0  0  0  0  0  0  0
    3.0720   -0.8578   -1.0486 C   0  0  0  0  0  0  0  0  0  0  0  0
   -4.3191    3.4821    2.2518 H   0  0  0  0  0  0  0  0  0  0  0  0
   -5.7787    3.0297    1.3391 H   0  0  0  0  0  0  0  0  0  0  0  0
   -4.8252    1.7978    2.2001 H   0  0  0  0  0  0  0  0  0  0  0  0
   -4.3719    1.7271   -0.2589 H   0  0  0  0  0  0  0  0  0  0  0  0
   -3.8543    3.4301   -0.2026 H   0  0  0  0  0  0  0  0  0  0  0  0
   -2.4675   -0.8336   -2.5165 H   0  0  0  0  0  0  0  0  0  0  0  0
   -0.8271   -0.4302   -1.9985 H   0  0  0  0  0  0  0  0  0  0  0  0
   -1.2527   -2.8653   -1.7013 H   0  0  0  0  0  0  0  0  0  0  0  0
   -1.0387   -2.0904   -0.1138 H   0  0  0  0  0  0  0  0  0  0  0  0
   -2.6560   -2.5011   -0.6693 H   0  0  0  0  0  0  0  0  0  0  0  0
    3.7550   -1.0150    2.3002 H   0  0  0  0  0  0  0  0  0  0  0  0
    5.7638   -2.1208    1.4392 H   0  0  0  0  0  0  0  0  0  0  0  0
    6.0850   -2.4363   -0.9983 H   0  0  0  0  0  0  0  0  0  0  0  0
    4.3661   -1.6267   -2.5929 H   0  0  0  0  0  0  0  0  0  0  0  0
    2.3339   -0.5061   -1.7672 H   0  0  0  0  0  0  0  0  0  0  0  0
  1  2  1  0
  2  3  1  0
  3  4  1  0
  4  5  2  0
  4  6  1  0
  6  7  1  0
  7  8  1  0
  4  9  1  0
  9 10  1  0
 10 11  2  3
 11 12  1  0
 12 13  3  0
 11 14  1  0
 14 15  2  0
 15 16  1  0
 16 17  2  0
 17 18  1  0
 18 19  2  0
 19 14  1  0
  1 20  1  0
  1 21  1  0
  1 22  1  0
  2 23  1  0
  2 24  1  0
  7 25  1  0
  7 26  1  0
  8 27  1  0
  8 28  1  0
  8 29  1  0
 15 30  1  0
 16 31  1  0
 17 32  1  0
 18 33  1  0
 19 34  1  0
M  END
>  <Energy>  (11) 
63.2695275474477

>  <Real charge>  (11) 
0

>  <Mult>  (11) 
1

$$$$
mol_204 243
     RDKit          3D

 34 34  0  0  0  0  0  0  0  0999 V2000
   -3.9150   -1.4000   -1.5910 C   0  0  0  0  0  0  0  0  0  0  0  0
   -3.4249   -1.5961   -0.1711 C   0  0  0  0  0  0  0  0  0  0  0  0
   -2.1907   -0.9147   -0.0231 O   0  0  0  0  0  0  0  0  0  0  0  0
   -1.6699   -0.5890    1.4784 P   0  0  0  0  0  5  0  0  0  0  0  0
   -1.4971   -2.0869    2.6978 S   0  0  0  0  0  0  0  0  0  0  0  0
   -2.7173    0.5550    1.9494 O   0  0  0  0  0  0  0  0  0  0  0  0
   -2.8467    1.7431    1.1860 C   0  0  0  0  0  0  0  0  0  0  0  0
   -2.3747    2.9175    2.0183 C   0  0  0  0  0  0  0  0  0  0  0  0
   -0.3176    0.2866    1.1923 O   0  0  0  0  0  0  0  0  0  0  0  0
    0.7458   -0.4146    0.5796 N   0  0  0  0  0  0  0  0  0  0  0  0
    1.7540    0.3503    0.2752 C   0  0  0  0  0  0  0  0  0  0  0  0
    1.6487    1.7692    0.5565 C   0  0  0  0  0  0  0  0  0  0  0  0
    1.5797    2.9121    0.7603 N   0  0  0  0  0  0  0  0  0  0  0  0
    2.9896   -0.1762   -0.3552 C   0  0  0  0  0  0  0  0  0  0  0  0
    3.0933   -1.5556   -0.5901 C   0  0  0  0  0  0  0  0  0  0  0  0
    4.2411   -2.0876   -1.1812 C   0  0  0  0  0  0  0  0  0  0  0  0
    5.2925   -1.2481   -1.5421 C   0  0  0  0  0  0  0  0  0  0  0  0
    5.1996    0.1235   -1.3128 C   0  0  0  0  0  0  0  0  0  0  0  0
    4.0533    0.6618   -0.7210 C   0  0  0  0  0  0  0  0  0  0  0  0
   -4.8649   -1.9177   -1.7513 H   0  0  0  0  0  0  0  0  0  0  0  0
   -4.0517   -0.3352   -1.8072 H   0  0  0  0  0  0  0  0  0  0  0  0
   -3.1802   -1.7790   -2.3090 H   0  0  0  0  0  0  0  0  0  0  0  0
   -4.1631   -1.2036    0.5353 H   0  0  0  0  0  0  0  0  0  0  0  0
   -3.2729   -2.6611    0.0280 H   0  0  0  0  0  0  0  0  0  0  0  0
   -2.2811    1.6856    0.2507 H   0  0  0  0  0  0  0  0  0  0  0  0
   -3.9036    1.8644    0.9299 H   0  0  0  0  0  0  0  0  0  0  0  0
   -2.4803    3.8549    1.4652 H   0  0  0  0  0  0  0  0  0  0  0  0
   -1.3256    2.7926    2.3046 H   0  0  0  0  0  0  0  0  0  0  0  0
   -2.9510    2.9884    2.9467 H   0  0  0  0  0  0  0  0  0  0  0  0
    2.2852   -2.2310   -0.3133 H   0  0  0  0  0  0  0  0  0  0  0  0
    4.3141   -3.1584   -1.3580 H   0  0  0  0  0  0  0  0  0  0  0  0
    6.1865   -1.6636   -2.0016 H   0  0  0  0  0  0  0  0  0  0  0  0
    6.0230    0.7762   -1.5948 H   0  0  0  0  0  0  0  0  0  0  0  0
    4.0217    1.7370   -0.5595 H   0  0  0  0  0  0  0  0  0  0  0  0
  1  2  1  0
  2  3  1  0
  3  4  1  0
  4  5  2  0
  4  6  1  0
  6  7  1  0
  7  8  1  0
  4  9  1  0
  9 10  1  0
 10 11  2  3
 11 12  1  0
 12 13  3  0
 11 14  1  0
 14 15  2  0
 15 16  1  0
 16 17  2  0
 17 18  1  0
 18 19  2  0
 19 14  1  0
  1 20  1  0
  1 21  1  0
  1 22  1  0
  2 23  1  0
  2 24  1  0
  7 25  1  0
  7 26  1  0
  8 27  1  0
  8 28  1  0
  8 29  1  0
 15 30  1  0
 16 31  1  0
 17 32  1  0
 18 33  1  0
 19 34  1  0
M  END
>  <Energy>  (12) 
63.3878040559756

>  <Real charge>  (12) 
0

>  <Mult>  (12) 
1

$$$$
mol_204 27
     RDKit          3D

 34 34  0  0  0  0  0  0  0  0999 V2000
   -4.6103    2.7103   -0.4194 C   0  0  0  0  0  0  0  0  0  0  0  0
   -3.5354    1.6434   -0.4646 C   0  0  0  0  0  0  0  0  0  0  0  0
   -3.3437    1.1419    0.8468 O   0  0  0  0  0  0  0  0  0  0  0  0
   -2.1858    0.0370    1.1108 P   0  0  0  0  0  5  0  0  0  0  0  0
   -2.0943   -0.5741    2.9497 S   0  0  0  0  0  0  0  0  0  0  0  0
   -2.5452   -1.0685   -0.0179 O   0  0  0  0  0  0  0  0  0  0  0  0
   -1.7591   -2.2418   -0.1287 C   0  0  0  0  0  0  0  0  0  0  0  0
   -1.2778   -2.3721   -1.5593 C   0  0  0  0  0  0  0  0  0  0  0  0
   -0.8701    0.7884    0.4935 O   0  0  0  0  0  0  0  0  0  0  0  0
    0.3455    0.0702    0.5353 N   0  0  0  0  0  0  0  0  0  0  0  0
    1.3425    0.7240    0.0118 C   0  0  0  0  0  0  0  0  0  0  0  0
    1.0852    2.0343   -0.5541 C   0  0  0  0  0  0  0  0  0  0  0  0
    0.8993    3.0797   -1.0280 N   0  0  0  0  0  0  0  0  0  0  0  0
    2.7175    0.1691   -0.0351 C   0  0  0  0  0  0  0  0  0  0  0  0
    2.9711   -1.0619    0.5890 C   0  0  0  0  0  0  0  0  0  0  0  0
    4.2524   -1.6163    0.5634 C   0  0  0  0  0  0  0  0  0  0  0  0
    5.2885   -0.9476   -0.0847 C   0  0  0  0  0  0  0  0  0  0  0  0
    5.0469    0.2759   -0.7071 C   0  0  0  0  0  0  0  0  0  0  0  0
    3.7666    0.8362   -0.6843 C   0  0  0  0  0  0  0  0  0  0  0  0
   -5.5476    2.2975   -0.0320 H   0  0  0  0  0  0  0  0  0  0  0  0
   -4.7917    3.1241   -1.4153 H   0  0  0  0  0  0  0  0  0  0  0  0
   -4.3183    3.5235    0.2533 H   0  0  0  0  0  0  0  0  0  0  0  0
   -3.8469    0.8313   -1.1281 H   0  0  0  0  0  0  0  0  0  0  0  0
   -2.6027    2.0732   -0.8413 H   0  0  0  0  0  0  0  0  0  0  0  0
   -2.3888   -3.0972    0.1344 H   0  0  0  0  0  0  0  0  0  0  0  0
   -0.9070   -2.2295    0.5562 H   0  0  0  0  0  0  0  0  0  0  0  0
   -0.6823   -3.2800   -1.6894 H   0  0  0  0  0  0  0  0  0  0  0  0
   -0.6696   -1.5071   -1.8433 H   0  0  0  0  0  0  0  0  0  0  0  0
   -2.1265   -2.4043   -2.2505 H   0  0  0  0  0  0  0  0  0  0  0  0
    2.1787   -1.5994    1.1070 H   0  0  0  0  0  0  0  0  0  0  0  0
    4.4422   -2.5691    1.0526 H   0  0  0  0  0  0  0  0  0  0  0  0
    6.2866   -1.3794   -0.1028 H   0  0  0  0  0  0  0  0  0  0  0  0
    5.8589    0.7961   -1.2109 H   0  0  0  0  0  0  0  0  0  0  0  0
    3.6213    1.7922   -1.1827 H   0  0  0  0  0  0  0  0  0  0  0  0
  1  2  1  0
  2  3  1  0
  3  4  1  0
  4  5  2  0
  4  6  1  0
  6  7  1  0
  7  8  1  0
  4  9  1  0
  9 10  1  0
 10 11  2  3
 11 12  1  0
 12 13  3  0
 11 14  1  0
 14 15  2  0
 15 16  1  0
 16 17  2  0
 17 18  1  0
 18 19  2  0
 19 14  1  0
  1 20  1  0
  1 21  1  0
  1 22  1  0
  2 23  1  0
  2 24  1  0
  7 25  1  0
  7 26  1  0
  8 27  1  0
  8 28  1  0
  8 29  1  0
 15 30  1  0
 16 31  1  0
 17 32  1  0
 18 33  1  0
 19 34  1  0
M  END
>  <Energy>  (13) 
63.408238090167565

>  <Real charge>  (13) 
0

>  <Mult>  (13) 
1

$$$$
