mol_194 63
     RDKit          3D

 14 13  0  0  0  0  0  0  0  0999 V2000
    1.9295    0.2622   -0.1120 C   0  0  0  0  0  0  0  0  0  0  0  0
    0.5609   -0.3463   -0.3888 C   0  0  0  0  0  0  0  0  0  0  0  0
   -0.5788    0.3424    0.3709 C   0  0  0  0  0  0  0  0  0  0  0  0
   -1.8963   -0.3983    0.1748 C   0  0  0  0  0  0  0  0  0  0  0  0
   -0.7813    2.0358   -0.1711 Cl  0  0  0  0  0  0  0  0  0  0  0  0
    2.1476    0.2642    0.9607 H   0  0  0  0  0  0  0  0  0  0  0  0
    2.7075   -0.3228   -0.6133 H   0  0  0  0  0  0  0  0  0  0  0  0
    1.9992    1.2895   -0.4811 H   0  0  0  0  0  0  0  0  0  0  0  0
    0.5957   -1.4037   -0.0980 H   0  0  0  0  0  0  0  0  0  0  0  0
    0.3681   -0.3246   -1.4686 H   0  0  0  0  0  0  0  0  0  0  0  0
   -0.3446    0.3798    1.4403 H   0  0  0  0  0  0  0  0  0  0  0  0
   -1.8169   -1.4292    0.5363 H   0  0  0  0  0  0  0  0  0  0  0  0
   -2.1842   -0.4343   -0.8817 H   0  0  0  0  0  0  0  0  0  0  0  0
   -2.7063    0.0853    0.7316 H   0  0  0  0  0  0  0  0  0  0  0  0
  1  2  1  0
  2  3  1  0
  3  4  1  0
  3  5  1  0
  1  6  1  0
  1  7  1  0
  1  8  1  0
  2  9  1  0
  2 10  1  0
  3 11  1  0
  4 12  1  0
  4 13  1  0
  4 14  1  0
M  END
>  <Energy>  (1) 
0.10706969064531996

>  <Real charge>  (1) 
0

>  <Mult>  (1) 
1

$$$$
mol_194 64
     RDKit          3D

 14 13  0  0  0  0  0  0  0  0999 V2000
   -1.5940    0.0110    0.4091 C   0  0  0  0  0  0  0  0  0  0  0  0
   -0.6100   -0.5652   -0.6014 C   0  0  0  0  0  0  0  0  0  0  0  0
    0.7441    0.1507   -0.6875 C   0  0  0  0  0  0  0  0  0  0  0  0
    1.5071    0.1679    0.6309 C   0  0  0  0  0  0  0  0  0  0  0  0
    0.5480    1.8261   -1.2839 Cl  0  0  0  0  0  0  0  0  0  0  0  0
   -1.2046   -0.0538    1.4293 H   0  0  0  0  0  0  0  0  0  0  0  0
   -2.5308   -0.5553    0.3786 H   0  0  0  0  0  0  0  0  0  0  0  0
   -1.8326    1.0564    0.1939 H   0  0  0  0  0  0  0  0  0  0  0  0
   -0.4354   -1.6186   -0.3484 H   0  0  0  0  0  0  0  0  0  0  0  0
   -1.0829   -0.5630   -1.5916 H   0  0  0  0  0  0  0  0  0  0  0  0
    1.3560   -0.3639   -1.4365 H   0  0  0  0  0  0  0  0  0  0  0  0
    0.9997    0.7680    1.3932 H   0  0  0  0  0  0  0  0  0  0  0  0
    2.5096    0.5879    0.4927 H   0  0  0  0  0  0  0  0  0  0  0  0
    1.6259   -0.8482    1.0216 H   0  0  0  0  0  0  0  0  0  0  0  0
  1  2  1  0
  2  3  1  0
  3  4  1  0
  3  5  1  0
  1  6  1  0
  1  7  1  0
  1  8  1  0
  2  9  1  0
  2 10  1  0
  3 11  1  0
  4 12  1  0
  4 13  1  0
  4 14  1  0
M  END
>  <Energy>  (2) 
0.7297117448037125

>  <Real charge>  (2) 
0

>  <Mult>  (2) 
1

$$$$
mol_194 19
     RDKit          3D

 14 13  0  0  0  0  0  0  0  0999 V2000
    1.6643    0.1643   -0.0050 C   0  0  0  0  0  0  0  0  0  0  0  0
    0.5327   -0.8539   -0.0241 C   0  0  0  0  0  0  0  0  0  0  0  0
   -0.7998   -0.2680   -0.5026 C   0  0  0  0  0  0  0  0  0  0  0  0
   -1.3505    0.8152    0.4166 C   0  0  0  0  0  0  0  0  0  0  0  0
   -2.0056   -1.5902   -0.6210 Cl  0  0  0  0  0  0  0  0  0  0  0  0
    1.4895    0.9451    0.7410 H   0  0  0  0  0  0  0  0  0  0  0  0
    2.6082   -0.3290    0.2486 H   0  0  0  0  0  0  0  0  0  0  0  0
    1.7826    0.6388   -0.9842 H   0  0  0  0  0  0  0  0  0  0  0  0
    0.8276   -1.6762   -0.6882 H   0  0  0  0  0  0  0  0  0  0  0  0
    0.4225   -1.2822    0.9799 H   0  0  0  0  0  0  0  0  0  0  0  0
   -0.6869    0.1358   -1.5143 H   0  0  0  0  0  0  0  0  0  0  0  0
   -0.6913    1.6885    0.4376 H   0  0  0  0  0  0  0  0  0  0  0  0
   -1.4620    0.4508    1.4437 H   0  0  0  0  0  0  0  0  0  0  0  0
   -2.3314    1.1610    0.0719 H   0  0  0  0  0  0  0  0  0  0  0  0
  1  2  1  0
  2  3  1  0
  3  4  1  0
  3  5  1  0
  1  6  1  0
  1  7  1  0
  1  8  1  0
  2  9  1  0
  2 10  1  0
  3 11  1  0
  4 12  1  0
  4 13  1  0
  4 14  1  0
M  END
>  <Energy>  (3) 
0.873026586839234

>  <Real charge>  (3) 
0

>  <Mult>  (3) 
1

$$$$
