mol_818 517
     RDKit          3D

 41 40  0  0  0  0  0  0  0  0999 V2000
   -7.3427    0.2651    1.1354 C   0  0  0  0  0  0  0  0  0  0  0  0
   -6.2331   -0.0731    0.1526 C   0  0  0  0  0  0  0  0  0  0  0  0
   -4.8574    0.2781    0.7186 C   0  0  0  0  0  0  0  0  0  0  0  0
   -3.7441   -0.0636   -0.2730 C   0  0  0  0  0  0  0  0  0  0  0  0
   -2.3673    0.2878    0.2933 C   0  0  0  0  0  0  0  0  0  0  0  0
   -1.2540   -0.0540   -0.6984 C   0  0  0  0  0  0  0  0  0  0  0  0
    0.1227    0.2974   -0.1321 C   0  0  0  0  0  0  0  0  0  0  0  0
    1.2360   -0.0445   -1.1237 C   0  0  0  0  0  0  0  0  0  0  0  0
    2.6131    0.3068   -0.5571 C   0  0  0  0  0  0  0  0  0  0  0  0
    3.7262   -0.0340   -1.5530 C   0  0  0  0  0  0  0  0  0  0  0  0
    5.1136    0.3298   -1.0248 C   0  0  0  0  0  0  0  0  0  0  0  0
    5.5917   -0.5921    0.0740 C   0  0  0  0  0  0  0  0  0  0  0  0
    5.1083   -1.6808    0.3492 O   0  0  0  0  0  0  0  0  0  0  0  0
    6.6699   -0.0347    0.6961 O   0  0  0  0  0  0  0  0  0  0  0  0
    7.2113   -0.8362    1.7468 C   0  0  0  0  0  0  0  0  0  0  0  0
   -7.2212   -0.2905    2.0707 H   0  0  0  0  0  0  0  0  0  0  0  0
   -8.3174    0.0059    0.7105 H   0  0  0  0  0  0  0  0  0  0  0  0
   -7.3474    1.3346    1.3689 H   0  0  0  0  0  0  0  0  0  0  0  0
   -6.4019    0.4737   -0.7823 H   0  0  0  0  0  0  0  0  0  0  0  0
   -6.2764   -1.1425   -0.0844 H   0  0  0  0  0  0  0  0  0  0  0  0
   -4.6952   -0.2682    1.6558 H   0  0  0  0  0  0  0  0  0  0  0  0
   -4.8207    1.3479    0.9579 H   0  0  0  0  0  0  0  0  0  0  0  0
   -3.9062    0.4829   -1.2101 H   0  0  0  0  0  0  0  0  0  0  0  0
   -3.7807   -1.1335   -0.5121 H   0  0  0  0  0  0  0  0  0  0  0  0
   -2.3306    1.3576    0.5323 H   0  0  0  0  0  0  0  0  0  0  0  0
   -2.2051   -0.2587    1.2303 H   0  0  0  0  0  0  0  0  0  0  0  0
   -1.4162    0.4925   -1.6354 H   0  0  0  0  0  0  0  0  0  0  0  0
   -1.2907   -1.1238   -0.9375 H   0  0  0  0  0  0  0  0  0  0  0  0
    0.2848   -0.2491    0.8050 H   0  0  0  0  0  0  0  0  0  0  0  0
    0.1595    1.3672    0.1069 H   0  0  0  0  0  0  0  0  0  0  0  0
    1.1994   -1.1144   -1.3624 H   0  0  0  0  0  0  0  0  0  0  0  0
    1.0737    0.5019   -2.0608 H   0  0  0  0  0  0  0  0  0  0  0  0
    2.6492    1.3772   -0.3201 H   0  0  0  0  0  0  0  0  0  0  0  0
    2.7686   -0.2363    0.3821 H   0  0  0  0  0  0  0  0  0  0  0  0
    3.6846   -1.1001   -1.8068 H   0  0  0  0  0  0  0  0  0  0  0  0
    3.5526    0.5223   -2.4824 H   0  0  0  0  0  0  0  0  0  0  0  0
    5.8391    0.2606   -1.8432 H   0  0  0  0  0  0  0  0  0  0  0  0
    5.1083    1.3601   -0.6514 H   0  0  0  0  0  0  0  0  0  0  0  0
    8.0592   -0.2987    2.1803 H   0  0  0  0  0  0  0  0  0  0  0  0
    7.5717   -1.7917    1.3530 H   0  0  0  0  0  0  0  0  0  0  0  0
    6.4649   -0.9957    2.5313 H   0  0  0  0  0  0  0  0  0  0  0  0
  1  2  1  0
  2  3  1  0
  3  4  1  0
  4  5  1  0
  5  6  1  0
  6  7  1  0
  7  8  1  0
  8  9  1  0
  9 10  1  0
 10 11  1  0
 11 12  1  0
 12 13  2  0
 12 14  1  0
 14 15  1  0
  1 16  1  0
  1 17  1  0
  1 18  1  0
  2 19  1  0
  2 20  1  0
  3 21  1  0
  3 22  1  0
  4 23  1  0
  4 24  1  0
  5 25  1  0
  5 26  1  0
  6 27  1  0
  6 28  1  0
  7 29  1  0
  7 30  1  0
  8 31  1  0
  8 32  1  0
  9 33  1  0
  9 34  1  0
 10 35  1  0
 10 36  1  0
 11 37  1  0
 11 38  1  0
 15 39  1  0
 15 40  1  0
 15 41  1  0
M  END
>  <Energy>  (1) 
-12.060300337432109

>  <Real charge>  (1) 
0

>  <Mult>  (1) 
1

$$$$
mol_818 536
     RDKit          3D

 41 40  0  0  0  0  0  0  0  0999 V2000
   -6.7757   -0.7350    2.1608 C   0  0  0  0  0  0  0  0  0  0  0  0
   -5.9379   -0.2904    0.9725 C   0  0  0  0  0  0  0  0  0  0  0  0
   -4.4438   -0.4639    1.2445 C   0  0  0  0  0  0  0  0  0  0  0  0
   -3.6046   -0.0156    0.0468 C   0  0  0  0  0  0  0  0  0  0  0  0
   -2.1095   -0.1892    0.3189 C   0  0  0  0  0  0  0  0  0  0  0  0
   -1.2703    0.2590   -0.8789 C   0  0  0  0  0  0  0  0  0  0  0  0
    0.2257    0.0858   -0.6064 C   0  0  0  0  0  0  0  0  0  0  0  0
    1.0625    0.5314   -1.8077 C   0  0  0  0  0  0  0  0  0  0  0  0
    2.5713    0.4881   -1.5469 C   0  0  0  0  0  0  0  0  0  0  0  0
    3.1124   -0.9322   -1.3494 C   0  0  0  0  0  0  0  0  0  0  0  0
    4.6363   -0.9613   -1.2230 C   0  0  0  0  0  0  0  0  0  0  0  0
    5.1337   -0.4028    0.0910 C   0  0  0  0  0  0  0  0  0  0  0  0
    4.4498   -0.2099    1.0859 O   0  0  0  0  0  0  0  0  0  0  0  0
    6.4755   -0.1739    0.0074 O   0  0  0  0  0  0  0  0  0  0  0  0
    7.0513    0.3434    1.2075 C   0  0  0  0  0  0  0  0  0  0  0  0
   -7.8404   -0.6023    1.9447 H   0  0  0  0  0  0  0  0  0  0  0  0
   -6.5343   -0.1478    3.0526 H   0  0  0  0  0  0  0  0  0  0  0  0
   -6.6043   -1.7920    2.3882 H   0  0  0  0  0  0  0  0  0  0  0  0
   -6.1567    0.7608    0.7515 H   0  0  0  0  0  0  0  0  0  0  0  0
   -6.2263   -0.8743    0.0907 H   0  0  0  0  0  0  0  0  0  0  0  0
   -4.1615    0.1188    2.1298 H   0  0  0  0  0  0  0  0  0  0  0  0
   -4.2311   -1.5162    1.4690 H   0  0  0  0  0  0  0  0  0  0  0  0
   -3.8870   -0.5985   -0.8383 H   0  0  0  0  0  0  0  0  0  0  0  0
   -3.8174    1.0367   -0.1775 H   0  0  0  0  0  0  0  0  0  0  0  0
   -1.8968   -1.2416    0.5433 H   0  0  0  0  0  0  0  0  0  0  0  0
   -1.8270    0.3937    1.2040 H   0  0  0  0  0  0  0  0  0  0  0  0
   -1.5520   -0.3243   -1.7640 H   0  0  0  0  0  0  0  0  0  0  0  0
   -1.4838    1.3112   -1.1031 H   0  0  0  0  0  0  0  0  0  0  0  0
    0.4276   -0.9663   -0.3769 H   0  0  0  0  0  0  0  0  0  0  0  0
    0.5081    0.6719    0.2764 H   0  0  0  0  0  0  0  0  0  0  0  0
    0.8211   -0.0893   -2.6791 H   0  0  0  0  0  0  0  0  0  0  0  0
    0.7914    1.5618   -2.0697 H   0  0  0  0  0  0  0  0  0  0  0  0
    3.0780    0.9460   -2.4056 H   0  0  0  0  0  0  0  0  0  0  0  0
    2.8068    1.1096   -0.6753 H   0  0  0  0  0  0  0  0  0  0  0  0
    2.8249   -1.5447   -2.2126 H   0  0  0  0  0  0  0  0  0  0  0  0
    2.6605   -1.3928   -0.4642 H   0  0  0  0  0  0  0  0  0  0  0  0
    5.0868   -0.3959   -2.0465 H   0  0  0  0  0  0  0  0  0  0  0  0
    4.9820   -1.9994   -1.2850 H   0  0  0  0  0  0  0  0  0  0  0  0
    6.9347   -0.3720    2.0277 H   0  0  0  0  0  0  0  0  0  0  0  0
    6.6006    1.3070    1.4651 H   0  0  0  0  0  0  0  0  0  0  0  0
    8.1196    0.4972    1.0318 H   0  0  0  0  0  0  0  0  0  0  0  0
  1  2  1  0
  2  3  1  0
  3  4  1  0
  4  5  1  0
  5  6  1  0
  6  7  1  0
  7  8  1  0
  8  9  1  0
  9 10  1  0
 10 11  1  0
 11 12  1  0
 12 13  2  0
 12 14  1  0
 14 15  1  0
  1 16  1  0
  1 17  1  0
  1 18  1  0
  2 19  1  0
  2 20  1  0
  3 21  1  0
  3 22  1  0
  4 23  1  0
  4 24  1  0
  5 25  1  0
  5 26  1  0
  6 27  1  0
  6 28  1  0
  7 29  1  0
  7 30  1  0
  8 31  1  0
  8 32  1  0
  9 33  1  0
  9 34  1  0
 10 35  1  0
 10 36  1  0
 11 37  1  0
 11 38  1  0
 15 39  1  0
 15 40  1  0
 15 41  1  0
M  END
>  <Energy>  (2) 
-11.233111531247348

>  <Real charge>  (2) 
0

>  <Mult>  (2) 
1

$$$$
mol_818 609
     RDKit          3D

 41 40  0  0  0  0  0  0  0  0999 V2000
   -7.0164    1.6787   -0.1132 C   0  0  0  0  0  0  0  0  0  0  0  0
   -6.0639    0.5406   -0.4431 C   0  0  0  0  0  0  0  0  0  0  0  0
   -4.6373    0.8563    0.0056 C   0  0  0  0  0  0  0  0  0  0  0  0
   -3.6824   -0.2910   -0.3280 C   0  0  0  0  0  0  0  0  0  0  0  0
   -2.2548    0.0248    0.1210 C   0  0  0  0  0  0  0  0  0  0  0  0
   -1.2998   -1.1225   -0.2128 C   0  0  0  0  0  0  0  0  0  0  0  0
    0.1286   -0.8066    0.2370 C   0  0  0  0  0  0  0  0  0  0  0  0
    1.0823   -1.9544   -0.1020 C   0  0  0  0  0  0  0  0  0  0  0  0
    2.5035   -1.7420    0.4274 C   0  0  0  0  0  0  0  0  0  0  0  0
    3.2294   -0.5680   -0.2322 C   0  0  0  0  0  0  0  0  0  0  0  0
    4.6779   -0.4734    0.2467 C   0  0  0  0  0  0  0  0  0  0  0  0
    5.4091    0.6846   -0.3915 C   0  0  0  0  0  0  0  0  0  0  0  0
    4.9345    1.4656   -1.2035 O   0  0  0  0  0  0  0  0  0  0  0  0
    6.6887    0.7250    0.0792 O   0  0  0  0  0  0  0  0  0  0  0  0
    7.4725    1.7883   -0.4634 C   0  0  0  0  0  0  0  0  0  0  0  0
   -8.0305    1.4319   -0.4427 H   0  0  0  0  0  0  0  0  0  0  0  0
   -7.0456    1.8659    0.9649 H   0  0  0  0  0  0  0  0  0  0  0  0
   -6.7119    2.6030   -0.6146 H   0  0  0  0  0  0  0  0  0  0  0  0
   -6.4146   -0.3752    0.0470 H   0  0  0  0  0  0  0  0  0  0  0  0
   -6.0827    0.3579   -1.5239 H   0  0  0  0  0  0  0  0  0  0  0  0
   -4.6249    1.0423    1.0865 H   0  0  0  0  0  0  0  0  0  0  0  0
   -4.2930    1.7753   -0.4842 H   0  0  0  0  0  0  0  0  0  0  0  0
   -4.0268   -1.2099    0.1620 H   0  0  0  0  0  0  0  0  0  0  0  0
   -3.6949   -0.4768   -1.4089 H   0  0  0  0  0  0  0  0  0  0  0  0
   -1.9105    0.9438   -0.3689 H   0  0  0  0  0  0  0  0  0  0  0  0
   -2.2422    0.2105    1.2020 H   0  0  0  0  0  0  0  0  0  0  0  0
   -1.6449   -2.0412    0.2770 H   0  0  0  0  0  0  0  0  0  0  0  0
   -1.3116   -1.3080   -1.2937 H   0  0  0  0  0  0  0  0  0  0  0  0
    0.4614    0.1156   -0.2521 H   0  0  0  0  0  0  0  0  0  0  0  0
    0.1410   -0.6252    1.3184 H   0  0  0  0  0  0  0  0  0  0  0  0
    1.1129   -2.1023   -1.1884 H   0  0  0  0  0  0  0  0  0  0  0  0
    0.6923   -2.8835    0.3319 H   0  0  0  0  0  0  0  0  0  0  0  0
    2.4730   -1.5956    1.5140 H   0  0  0  0  0  0  0  0  0  0  0  0
    3.0747   -2.6615    0.2488 H   0  0  0  0  0  0  0  0  0  0  0  0
    2.7138    0.3720   -0.0042 H   0  0  0  0  0  0  0  0  0  0  0  0
    3.2087   -0.6853   -1.3227 H   0  0  0  0  0  0  0  0  0  0  0  0
    4.6991   -0.3338    1.3334 H   0  0  0  0  0  0  0  0  0  0  0  0
    5.2129   -1.3955   -0.0064 H   0  0  0  0  0  0  0  0  0  0  0  0
    7.5648    1.6815   -1.5488 H   0  0  0  0  0  0  0  0  0  0  0  0
    8.4722    1.7306   -0.0239 H   0  0  0  0  0  0  0  0  0  0  0  0
    7.0357    2.7578   -0.2039 H   0  0  0  0  0  0  0  0  0  0  0  0
  1  2  1  0
  2  3  1  0
  3  4  1  0
  4  5  1  0
  5  6  1  0
  6  7  1  0
  7  8  1  0
  8  9  1  0
  9 10  1  0
 10 11  1  0
 11 12  1  0
 12 13  2  0
 12 14  1  0
 14 15  1  0
  1 16  1  0
  1 17  1  0
  1 18  1  0
  2 19  1  0
  2 20  1  0
  3 21  1  0
  3 22  1  0
  4 23  1  0
  4 24  1  0
  5 25  1  0
  5 26  1  0
  6 27  1  0
  6 28  1  0
  7 29  1  0
  7 30  1  0
  8 31  1  0
  8 32  1  0
  9 33  1  0
  9 34  1  0
 10 35  1  0
 10 36  1  0
 11 37  1  0
 11 38  1  0
 15 39  1  0
 15 40  1  0
 15 41  1  0
M  END
>  <Energy>  (3) 
-11.218245789852773

>  <Real charge>  (3) 
0

>  <Mult>  (3) 
1

$$$$
mol_818 702
     RDKit          3D

 41 40  0  0  0  0  0  0  0  0999 V2000
   -6.6987    1.1327    1.4200 C   0  0  0  0  0  0  0  0  0  0  0  0
   -5.9030    0.9680    0.1349 C   0  0  0  0  0  0  0  0  0  0  0  0
   -4.5025    0.4208    0.4097 C   0  0  0  0  0  0  0  0  0  0  0  0
   -3.7054    0.2567   -0.8855 C   0  0  0  0  0  0  0  0  0  0  0  0
   -2.3032   -0.2917   -0.6106 C   0  0  0  0  0  0  0  0  0  0  0  0
   -1.5069   -0.4509   -1.9076 C   0  0  0  0  0  0  0  0  0  0  0  0
   -0.1365   -1.1037   -1.7048 C   0  0  0  0  0  0  0  0  0  0  0  0
    0.8300   -0.2473   -0.8837 C   0  0  0  0  0  0  0  0  0  0  0  0
    2.2159   -0.8924   -0.8105 C   0  0  0  0  0  0  0  0  0  0  0  0
    3.1831   -0.0409    0.0129 C   0  0  0  0  0  0  0  0  0  0  0  0
    4.5667   -0.6841    0.0859 C   0  0  0  0  0  0  0  0  0  0  0  0
    5.5335    0.1466    0.8971 C   0  0  0  0  0  0  0  0  0  0  0  0
    5.2746    1.2094    1.4429 O   0  0  0  0  0  0  0  0  0  0  0  0
    6.7473   -0.4747    0.9275 O   0  0  0  0  0  0  0  0  0  0  0  0
    7.7408    0.2303    1.6728 C   0  0  0  0  0  0  0  0  0  0  0  0
   -6.2021    1.8301    2.1022 H   0  0  0  0  0  0  0  0  0  0  0  0
   -7.6965    1.5250    1.2002 H   0  0  0  0  0  0  0  0  0  0  0  0
   -6.8164    0.1735    1.9342 H   0  0  0  0  0  0  0  0  0  0  0  0
   -5.8313    1.9382   -0.3704 H   0  0  0  0  0  0  0  0  0  0  0  0
   -6.4423    0.2908   -0.5375 H   0  0  0  0  0  0  0  0  0  0  0  0
   -4.5798   -0.5476    0.9188 H   0  0  0  0  0  0  0  0  0  0  0  0
   -3.9691    1.0997    1.0861 H   0  0  0  0  0  0  0  0  0  0  0  0
   -4.2397   -0.4219   -1.5615 H   0  0  0  0  0  0  0  0  0  0  0  0
   -3.6274    1.2252   -1.3943 H   0  0  0  0  0  0  0  0  0  0  0  0
   -1.7804    0.3891    0.0703 H   0  0  0  0  0  0  0  0  0  0  0  0
   -2.3813   -1.2619   -0.1054 H   0  0  0  0  0  0  0  0  0  0  0  0
   -2.0808   -1.0731   -2.6056 H   0  0  0  0  0  0  0  0  0  0  0  0
   -1.3809    0.5272   -2.3876 H   0  0  0  0  0  0  0  0  0  0  0  0
   -0.2627   -2.0825   -1.2262 H   0  0  0  0  0  0  0  0  0  0  0  0
    0.3019   -1.2900   -2.6931 H   0  0  0  0  0  0  0  0  0  0  0  0
    0.9125    0.7491   -1.3343 H   0  0  0  0  0  0  0  0  0  0  0  0
    0.4437   -0.1142    0.1329 H   0  0  0  0  0  0  0  0  0  0  0  0
    2.6145   -1.0236   -1.8238 H   0  0  0  0  0  0  0  0  0  0  0  0
    2.1330   -1.8905   -0.3634 H   0  0  0  0  0  0  0  0  0  0  0  0
    2.7854    0.0948    1.0265 H   0  0  0  0  0  0  0  0  0  0  0  0
    3.2640    0.9596   -0.4302 H   0  0  0  0  0  0  0  0  0  0  0  0
    4.9765   -0.7957   -0.9242 H   0  0  0  0  0  0  0  0  0  0  0  0
    4.4909   -1.6727    0.5525 H   0  0  0  0  0  0  0  0  0  0  0  0
    7.9276    1.2131    1.2289 H   0  0  0  0  0  0  0  0  0  0  0  0
    7.4372    0.3280    2.7198 H   0  0  0  0  0  0  0  0  0  0  0  0
    8.6677   -0.3487    1.6340 H   0  0  0  0  0  0  0  0  0  0  0  0
  1  2  1  0
  2  3  1  0
  3  4  1  0
  4  5  1  0
  5  6  1  0
  6  7  1  0
  7  8  1  0
  8  9  1  0
  9 10  1  0
 10 11  1  0
 11 12  1  0
 12 13  2  0
 12 14  1  0
 14 15  1  0
  1 16  1  0
  1 17  1  0
  1 18  1  0
  2 19  1  0
  2 20  1  0
  3 21  1  0
  3 22  1  0
  4 23  1  0
  4 24  1  0
  5 25  1  0
  5 26  1  0
  6 27  1  0
  6 28  1  0
  7 29  1  0
  7 30  1  0
  8 31  1  0
  8 32  1  0
  9 33  1  0
  9 34  1  0
 10 35  1  0
 10 36  1  0
 11 37  1  0
 11 38  1  0
 15 39  1  0
 15 40  1  0
 15 41  1  0
M  END
>  <Energy>  (4) 
-11.21378103125548

>  <Real charge>  (4) 
0

>  <Mult>  (4) 
1

$$$$
mol_818 703
     RDKit          3D

 41 40  0  0  0  0  0  0  0  0999 V2000
   -7.0666    0.9954    0.1227 C   0  0  0  0  0  0  0  0  0  0  0  0
   -5.6038    0.8904    0.5235 C   0  0  0  0  0  0  0  0  0  0  0  0
   -4.9217   -0.2985   -0.1528 C   0  0  0  0  0  0  0  0  0  0  0  0
   -3.4497   -0.4010    0.2536 C   0  0  0  0  0  0  0  0  0  0  0  0
   -2.7685   -1.5897   -0.4281 C   0  0  0  0  0  0  0  0  0  0  0  0
   -1.3239   -1.8090    0.0304 C   0  0  0  0  0  0  0  0  0  0  0  0
   -0.3790   -0.6743   -0.3713 C   0  0  0  0  0  0  0  0  0  0  0  0
    1.0678   -0.9980    0.0085 C   0  0  0  0  0  0  0  0  0  0  0  0
    2.0143    0.1363   -0.3881 C   0  0  0  0  0  0  0  0  0  0  0  0
    3.4599   -0.1872   -0.0090 C   0  0  0  0  0  0  0  0  0  0  0  0
    4.4055    0.9454   -0.4049 C   0  0  0  0  0  0  0  0  0  0  0  0
    5.8384    0.6394   -0.0362 C   0  0  0  0  0  0  0  0  0  0  0  0
    6.2299   -0.3803    0.5129 O   0  0  0  0  0  0  0  0  0  0  0  0
    6.6337    1.6818   -0.4122 O   0  0  0  0  0  0  0  0  0  0  0  0
    8.0165    1.4949   -0.1082 C   0  0  0  0  0  0  0  0  0  0  0  0
   -7.6177    0.0942    0.4099 H   0  0  0  0  0  0  0  0  0  0  0  0
   -7.1683    1.1306   -0.9589 H   0  0  0  0  0  0  0  0  0  0  0  0
   -7.5347    1.8520    0.6176 H   0  0  0  0  0  0  0  0  0  0  0  0
   -5.0891    1.8194    0.2517 H   0  0  0  0  0  0  0  0  0  0  0  0
   -5.5359    0.7885    1.6129 H   0  0  0  0  0  0  0  0  0  0  0  0
   -4.9953   -0.1938   -1.2422 H   0  0  0  0  0  0  0  0  0  0  0  0
   -5.4436   -1.2242    0.1189 H   0  0  0  0  0  0  0  0  0  0  0  0
   -2.9390    0.5302   -0.0159 H   0  0  0  0  0  0  0  0  0  0  0  0
   -3.3765   -0.5098    1.3424 H   0  0  0  0  0  0  0  0  0  0  0  0
   -2.7927   -1.4565   -1.5166 H   0  0  0  0  0  0  0  0  0  0  0  0
   -3.3377   -2.5018   -0.2093 H   0  0  0  0  0  0  0  0  0  0  0  0
   -1.2999   -1.9436    1.1186 H   0  0  0  0  0  0  0  0  0  0  0  0
   -0.9648   -2.7468   -0.4114 H   0  0  0  0  0  0  0  0  0  0  0  0
   -0.6783    0.2568    0.1226 H   0  0  0  0  0  0  0  0  0  0  0  0
   -0.4454   -0.5057   -1.4529 H   0  0  0  0  0  0  0  0  0  0  0  0
    1.3793   -1.9257   -0.4867 H   0  0  0  0  0  0  0  0  0  0  0  0
    1.1335   -1.1705    1.0897 H   0  0  0  0  0  0  0  0  0  0  0  0
    1.7036    1.0642    0.1073 H   0  0  0  0  0  0  0  0  0  0  0  0
    1.9479    0.3090   -1.4692 H   0  0  0  0  0  0  0  0  0  0  0  0
    3.5280   -0.3642    1.0717 H   0  0  0  0  0  0  0  0  0  0  0  0
    3.7718   -1.1172   -0.5007 H   0  0  0  0  0  0  0  0  0  0  0  0
    4.1111    1.8687    0.1063 H   0  0  0  0  0  0  0  0  0  0  0  0
    4.3582    1.1052   -1.4879 H   0  0  0  0  0  0  0  0  0  0  0  0
    8.4109    0.6218   -0.6376 H   0  0  0  0  0  0  0  0  0  0  0  0
    8.5607    2.3804   -0.4480 H   0  0  0  0  0  0  0  0  0  0  0  0
    8.1613    1.3927    0.9718 H   0  0  0  0  0  0  0  0  0  0  0  0
  1  2  1  0
  2  3  1  0
  3  4  1  0
  4  5  1  0
  5  6  1  0
  6  7  1  0
  7  8  1  0
  8  9  1  0
  9 10  1  0
 10 11  1  0
 11 12  1  0
 12 13  2  0
 12 14  1  0
 14 15  1  0
  1 16  1  0
  1 17  1  0
  1 18  1  0
  2 19  1  0
  2 20  1  0
  3 21  1  0
  3 22  1  0
  4 23  1  0
  4 24  1  0
  5 25  1  0
  5 26  1  0
  6 27  1  0
  6 28  1  0
  7 29  1  0
  7 30  1  0
  8 31  1  0
  8 32  1  0
  9 33  1  0
  9 34  1  0
 10 35  1  0
 10 36  1  0
 11 37  1  0
 11 38  1  0
 15 39  1  0
 15 40  1  0
 15 41  1  0
M  END
>  <Energy>  (5) 
-11.211498554445186

>  <Real charge>  (5) 
0

>  <Mult>  (5) 
1

$$$$
mol_818 290
     RDKit          3D

 41 40  0  0  0  0  0  0  0  0999 V2000
   -7.0438   -0.6550    0.3493 C   0  0  0  0  0  0  0  0  0  0  0  0
   -5.9864    0.4336    0.4402 C   0  0  0  0  0  0  0  0  0  0  0  0
   -4.6044   -0.0946    0.0564 C   0  0  0  0  0  0  0  0  0  0  0  0
   -3.5436    1.0035    0.1492 C   0  0  0  0  0  0  0  0  0  0  0  0
   -2.1598    0.4748   -0.2357 C   0  0  0  0  0  0  0  0  0  0  0  0
   -1.1002    1.5746   -0.1379 C   0  0  0  0  0  0  0  0  0  0  0  0
    0.2837    1.1317   -0.6215 C   0  0  0  0  0  0  0  0  0  0  0  0
    0.9178    0.0503    0.2562 C   0  0  0  0  0  0  0  0  0  0  0  0
    2.3426   -0.2706   -0.2030 C   0  0  0  0  0  0  0  0  0  0  0  0
    2.9755   -1.3580    0.6710 C   0  0  0  0  0  0  0  0  0  0  0  0
    4.3912   -1.7182    0.2211 C   0  0  0  0  0  0  0  0  0  0  0  0
    5.4069   -0.6442    0.5387 C   0  0  0  0  0  0  0  0  0  0  0  0
    5.2391    0.2863    1.3137 O   0  0  0  0  0  0  0  0  0  0  0  0
    6.5569   -0.8895   -0.1523 O   0  0  0  0  0  0  0  0  0  0  0  0
    7.5927    0.0636    0.0890 C   0  0  0  0  0  0  0  0  0  0  0  0
   -6.8111   -1.4853    1.0238 H   0  0  0  0  0  0  0  0  0  0  0  0
   -8.0239   -0.2555    0.6280 H   0  0  0  0  0  0  0  0  0  0  0  0
   -7.1146   -1.0491   -0.6695 H   0  0  0  0  0  0  0  0  0  0  0  0
   -5.9635    0.8282    1.4627 H   0  0  0  0  0  0  0  0  0  0  0  0
   -6.2655    1.2620   -0.2213 H   0  0  0  0  0  0  0  0  0  0  0  0
   -4.6336   -0.4918   -0.9656 H   0  0  0  0  0  0  0  0  0  0  0  0
   -4.3320   -0.9257    0.7182 H   0  0  0  0  0  0  0  0  0  0  0  0
   -3.8169    1.8344   -0.5126 H   0  0  0  0  0  0  0  0  0  0  0  0
   -3.5136    1.4002    1.1713 H   0  0  0  0  0  0  0  0  0  0  0  0
   -2.1888    0.0818   -1.2590 H   0  0  0  0  0  0  0  0  0  0  0  0
   -1.8989   -0.3585    0.4262 H   0  0  0  0  0  0  0  0  0  0  0  0
   -1.0312    1.9319    0.8967 H   0  0  0  0  0  0  0  0  0  0  0  0
   -1.4161    2.4308   -0.7469 H   0  0  0  0  0  0  0  0  0  0  0  0
    0.2150    0.7757   -1.6567 H   0  0  0  0  0  0  0  0  0  0  0  0
    0.9383    2.0121   -0.6336 H   0  0  0  0  0  0  0  0  0  0  0  0
    0.3158   -0.8643    0.2195 H   0  0  0  0  0  0  0  0  0  0  0  0
    0.9362    0.3874    1.2996 H   0  0  0  0  0  0  0  0  0  0  0  0
    2.3236   -0.6051   -1.2474 H   0  0  0  0  0  0  0  0  0  0  0  0
    2.9499    0.6412   -0.1677 H   0  0  0  0  0  0  0  0  0  0  0  0
    2.3550   -2.2611    0.6179 H   0  0  0  0  0  0  0  0  0  0  0  0
    2.9811   -1.0361    1.7194 H   0  0  0  0  0  0  0  0  0  0  0  0
    4.7117   -2.6294    0.7386 H   0  0  0  0  0  0  0  0  0  0  0  0
    4.3982   -1.9105   -0.8577 H   0  0  0  0  0  0  0  0  0  0  0  0
    7.2711    1.0648   -0.2145 H   0  0  0  0  0  0  0  0  0  0  0  0
    7.8857    0.0524    1.1435 H   0  0  0  0  0  0  0  0  0  0  0  0
    8.4600   -0.2188   -0.5141 H   0  0  0  0  0  0  0  0  0  0  0  0
  1  2  1  0
  2  3  1  0
  3  4  1  0
  4  5  1  0
  5  6  1  0
  6  7  1  0
  7  8  1  0
  8  9  1  0
  9 10  1  0
 10 11  1  0
 11 12  1  0
 12 13  2  0
 12 14  1  0
 14 15  1  0
  1 16  1  0
  1 17  1  0
  1 18  1  0
  2 19  1  0
  2 20  1  0
  3 21  1  0
  3 22  1  0
  4 23  1  0
  4 24  1  0
  5 25  1  0
  5 26  1  0
  6 27  1  0
  6 28  1  0
  7 29  1  0
  7 30  1  0
  8 31  1  0
  8 32  1  0
  9 33  1  0
  9 34  1  0
 10 35  1  0
 10 36  1  0
 11 37  1  0
 11 38  1  0
 15 39  1  0
 15 40  1  0
 15 41  1  0
M  END
>  <Energy>  (6) 
-11.195833756621251

>  <Real charge>  (6) 
0

>  <Mult>  (6) 
1

$$$$
mol_818 71
     RDKit          3D

 41 40  0  0  0  0  0  0  0  0999 V2000
   -6.7348   -0.4797   -0.9941 C   0  0  0  0  0  0  0  0  0  0  0  0
   -5.8432   -1.1766    0.0213 C   0  0  0  0  0  0  0  0  0  0  0  0
   -4.4943   -0.4695    0.1614 C   0  0  0  0  0  0  0  0  0  0  0  0
   -3.6011   -1.1784    1.1818 C   0  0  0  0  0  0  0  0  0  0  0  0
   -2.2815   -0.4482    1.4475 C   0  0  0  0  0  0  0  0  0  0  0  0
   -1.3500   -0.4136    0.2338 C   0  0  0  0  0  0  0  0  0  0  0  0
   -0.0039    0.2232    0.5871 C   0  0  0  0  0  0  0  0  0  0  0  0
    0.9281    0.2627   -0.6252 C   0  0  0  0  0  0  0  0  0  0  0  0
    2.2741    0.8987   -0.2719 C   0  0  0  0  0  0  0  0  0  0  0  0
    3.2046    0.9398   -1.4881 C   0  0  0  0  0  0  0  0  0  0  0  0
    4.5495    1.5938   -1.1724 C   0  0  0  0  0  0  0  0  0  0  0  0
    5.4439    0.7287   -0.3135 C   0  0  0  0  0  0  0  0  0  0  0  0
    5.2918   -0.4667   -0.1076 O   0  0  0  0  0  0  0  0  0  0  0  0
    6.4697    1.4828    0.1756 O   0  0  0  0  0  0  0  0  0  0  0  0
    7.3866    0.7540    0.9927 C   0  0  0  0  0  0  0  0  0  0  0  0
   -6.9353    0.5543   -0.6958 H   0  0  0  0  0  0  0  0  0  0  0  0
   -7.6934   -1.0011   -1.0777 H   0  0  0  0  0  0  0  0  0  0  0  0
   -6.2672   -0.4676   -1.9838 H   0  0  0  0  0  0  0  0  0  0  0  0
   -6.3541   -1.2005    0.9909 H   0  0  0  0  0  0  0  0  0  0  0  0
   -5.6879   -2.2162   -0.2897 H   0  0  0  0  0  0  0  0  0  0  0  0
   -4.0010   -0.4439   -0.8167 H   0  0  0  0  0  0  0  0  0  0  0  0
   -4.6554    0.5697    0.4723 H   0  0  0  0  0  0  0  0  0  0  0  0
   -4.1416   -1.2623    2.1329 H   0  0  0  0  0  0  0  0  0  0  0  0
   -3.3940   -2.2017    0.8456 H   0  0  0  0  0  0  0  0  0  0  0  0
   -2.4886    0.5746    1.7851 H   0  0  0  0  0  0  0  0  0  0  0  0
   -1.7715   -0.9564    2.2754 H   0  0  0  0  0  0  0  0  0  0  0  0
   -1.8128    0.1568   -0.5791 H   0  0  0  0  0  0  0  0  0  0  0  0
   -1.1878   -1.4337   -0.1347 H   0  0  0  0  0  0  0  0  0  0  0  0
   -0.1662    1.2420    0.9593 H   0  0  0  0  0  0  0  0  0  0  0  0
    0.4707   -0.3452    1.3962 H   0  0  0  0  0  0  0  0  0  0  0  0
    1.0900   -0.7562   -0.9974 H   0  0  0  0  0  0  0  0  0  0  0  0
    0.4541    0.8314   -1.4345 H   0  0  0  0  0  0  0  0  0  0  0  0
    2.1111    1.9181    0.0989 H   0  0  0  0  0  0  0  0  0  0  0  0
    2.7414    0.3313    0.5411 H   0  0  0  0  0  0  0  0  0  0  0  0
    3.3578   -0.0754   -1.8737 H   0  0  0  0  0  0  0  0  0  0  0  0
    2.7190    1.5144   -2.2865 H   0  0  0  0  0  0  0  0  0  0  0  0
    5.0858    1.7829   -2.1092 H   0  0  0  0  0  0  0  0  0  0  0  0
    4.3848    2.5520   -0.6668 H   0  0  0  0  0  0  0  0  0  0  0  0
    7.8676   -0.0407    0.4138 H   0  0  0  0  0  0  0  0  0  0  0  0
    6.8761    0.3422    1.8690 H   0  0  0  0  0  0  0  0  0  0  0  0
    8.1589    1.4475    1.3366 H   0  0  0  0  0  0  0  0  0  0  0  0
  1  2  1  0
  2  3  1  0
  3  4  1  0
  4  5  1  0
  5  6  1  0
  6  7  1  0
  7  8  1  0
  8  9  1  0
  9 10  1  0
 10 11  1  0
 11 12  1  0
 12 13  2  0
 12 14  1  0
 14 15  1  0
  1 16  1  0
  1 17  1  0
  1 18  1  0
  2 19  1  0
  2 20  1  0
  3 21  1  0
  3 22  1  0
  4 23  1  0
  4 24  1  0
  5 25  1  0
  5 26  1  0
  6 27  1  0
  6 28  1  0
  7 29  1  0
  7 30  1  0
  8 31  1  0
  8 32  1  0
  9 33  1  0
  9 34  1  0
 10 35  1  0
 10 36  1  0
 11 37  1  0
 11 38  1  0
 15 39  1  0
 15 40  1  0
 15 41  1  0
M  END
>  <Energy>  (7) 
-11.192897408542432

>  <Real charge>  (7) 
0

>  <Mult>  (7) 
1

$$$$
mol_818 244
     RDKit          3D

 41 40  0  0  0  0  0  0  0  0999 V2000
    6.6017    1.3984   -1.2842 C   0  0  0  0  0  0  0  0  0  0  0  0
    5.2787    1.1675   -0.5698 C   0  0  0  0  0  0  0  0  0  0  0  0
    5.1286   -0.2901   -0.1326 C   0  0  0  0  0  0  0  0  0  0  0  0
    3.8647   -0.5516    0.6916 C   0  0  0  0  0  0  0  0  0  0  0  0
    2.5705   -0.3611   -0.1024 C   0  0  0  0  0  0  0  0  0  0  0  0
    1.3469   -0.7450    0.7330 C   0  0  0  0  0  0  0  0  0  0  0  0
    0.0512   -0.5519   -0.0567 C   0  0  0  0  0  0  0  0  0  0  0  0
   -1.1717   -0.9359    0.7781 C   0  0  0  0  0  0  0  0  0  0  0  0
   -2.4677   -0.7425   -0.0117 C   0  0  0  0  0  0  0  0  0  0  0  0
   -3.6906   -1.1301    0.8254 C   0  0  0  0  0  0  0  0  0  0  0  0
   -5.0005   -0.9717    0.0536 C   0  0  0  0  0  0  0  0  0  0  0  0
   -5.3972    0.4726   -0.1534 C   0  0  0  0  0  0  0  0  0  0  0  0
   -4.9306    1.4309    0.4454 O   0  0  0  0  0  0  0  0  0  0  0  0
   -6.3823    0.5416   -1.0941 O   0  0  0  0  0  0  0  0  0  0  0  0
   -6.8423    1.8680   -1.3556 C   0  0  0  0  0  0  0  0  0  0  0  0
    7.4475    1.1662   -0.6292 H   0  0  0  0  0  0  0  0  0  0  0  0
    6.6884    2.4451   -1.5920 H   0  0  0  0  0  0  0  0  0  0  0  0
    6.6780    0.7732   -2.1796 H   0  0  0  0  0  0  0  0  0  0  0  0
    4.4635    1.4490   -1.2447 H   0  0  0  0  0  0  0  0  0  0  0  0
    5.2225    1.8268    0.3040 H   0  0  0  0  0  0  0  0  0  0  0  0
    5.1354   -0.9440   -1.0132 H   0  0  0  0  0  0  0  0  0  0  0  0
    5.9970   -0.5722    0.4759 H   0  0  0  0  0  0  0  0  0  0  0  0
    3.9076   -1.5828    1.0636 H   0  0  0  0  0  0  0  0  0  0  0  0
    3.8586    0.1015    1.5727 H   0  0  0  0  0  0  0  0  0  0  0  0
    2.4738    0.6835   -0.4187 H   0  0  0  0  0  0  0  0  0  0  0  0
    2.6020   -0.9752   -1.0103 H   0  0  0  0  0  0  0  0  0  0  0  0
    1.4312   -1.7918    1.0491 H   0  0  0  0  0  0  0  0  0  0  0  0
    1.3173   -0.1334    1.6431 H   0  0  0  0  0  0  0  0  0  0  0  0
   -0.0339    0.4950   -0.3727 H   0  0  0  0  0  0  0  0  0  0  0  0
    0.0812   -1.1631   -0.9669 H   0  0  0  0  0  0  0  0  0  0  0  0
   -1.2018   -0.3244    1.6882 H   0  0  0  0  0  0  0  0  0  0  0  0
   -1.0865   -1.9827    1.0942 H   0  0  0  0  0  0  0  0  0  0  0  0
   -2.4372   -1.3553   -0.9209 H   0  0  0  0  0  0  0  0  0  0  0  0
   -2.5457    0.3032   -0.3309 H   0  0  0  0  0  0  0  0  0  0  0  0
   -3.7172   -0.5320    1.7443 H   0  0  0  0  0  0  0  0  0  0  0  0
   -3.5931   -2.1794    1.1303 H   0  0  0  0  0  0  0  0  0  0  0  0
   -4.9163   -1.4636   -0.9219 H   0  0  0  0  0  0  0  0  0  0  0  0
   -5.8092   -1.4515    0.6161 H   0  0  0  0  0  0  0  0  0  0  0  0
   -7.2786    2.3072   -0.4530 H   0  0  0  0  0  0  0  0  0  0  0  0
   -6.0251    2.4899   -1.7345 H   0  0  0  0  0  0  0  0  0  0  0  0
   -7.6189    1.8120   -2.1233 H   0  0  0  0  0  0  0  0  0  0  0  0
  1  2  1  0
  2  3  1  0
  3  4  1  0
  4  5  1  0
  5  6  1  0
  6  7  1  0
  7  8  1  0
  8  9  1  0
  9 10  1  0
 10 11  1  0
 11 12  1  0
 12 13  2  0
 12 14  1  0
 14 15  1  0
  1 16  1  0
  1 17  1  0
  1 18  1  0
  2 19  1  0
  2 20  1  0
  3 21  1  0
  3 22  1  0
  4 23  1  0
  4 24  1  0
  5 25  1  0
  5 26  1  0
  6 27  1  0
  6 28  1  0
  7 29  1  0
  7 30  1  0
  8 31  1  0
  8 32  1  0
  9 33  1  0
  9 34  1  0
 10 35  1  0
 10 36  1  0
 11 37  1  0
 11 38  1  0
 15 39  1  0
 15 40  1  0
 15 41  1  0
M  END
>  <Energy>  (8) 
-11.187336234218415

>  <Real charge>  (8) 
0

>  <Mult>  (8) 
1

$$$$
