mol_745 191
     RDKit          3D

 50 52  0  0  0  0  0  0  0  0999 V2000
   -1.2843    1.5029    4.3610 C   0  0  0  0  0  0  0  0  0  0  0  0
   -0.4390    0.7273    3.3789 C   0  0  0  0  0  0  0  0  0  0  0  0
    0.9575    0.4508    3.8866 C   0  0  0  0  0  0  0  0  0  0  0  0
   -0.6024    0.9243    1.8796 C   0  0  0  0  0  0  0  0  0  0  0  0
   -1.5367    1.9251    1.3423 C   0  0  0  0  0  0  0  0  0  0  0  0
   -2.4017    1.7831    0.3193 C   0  0  0  0  0  0  0  0  0  0  0  0
   -2.5407    0.2682   -0.5231 Cl  0  0  0  0  0  0  0  0  0  0  0  0
   -3.3018    2.8697   -0.1919 C   0  0  0  0  0  0  0  0  0  0  0  0
   -4.6146    2.5379   -0.0860 F   0  0  0  0  0  0  0  0  0  0  0  0
   -3.1455    4.0373    0.4890 F   0  0  0  0  0  0  0  0  0  0  0  0
   -3.0698    3.1564   -1.4997 F   0  0  0  0  0  0  0  0  0  0  0  0
   -1.1496   -0.3262    2.5428 C   0  0  0  0  0  0  0  0  0  0  0  0
   -0.5426   -1.6548    2.2954 C   0  0  0  0  0  0  0  0  0  0  0  0
   -0.6286   -2.5660    3.1027 O   0  0  0  0  0  0  0  0  0  0  0  0
    0.0713   -1.7183    1.0915 O   0  0  0  0  0  0  0  0  0  0  0  0
    0.7129   -2.9757    0.8045 C   0  0  0  0  0  0  0  0  0  0  0  0
    2.0011   -3.0928    1.5259 C   0  0  0  0  0  0  0  0  0  0  0  0
    3.0120   -3.1687    2.0948 N   0  0  0  0  0  0  0  0  0  0  0  0
    0.9220   -3.0351   -0.7023 C   0  0  0  0  0  0  0  0  0  0  0  0
    0.6993   -4.2319   -1.4040 C   0  0  0  0  0  0  0  0  0  0  0  0
    0.9194   -4.2999   -2.7820 C   0  0  0  0  0  0  0  0  0  0  0  0
    1.3614   -3.1750   -3.4771 C   0  0  0  0  0  0  0  0  0  0  0  0
    1.5711   -1.9769   -2.7979 C   0  0  0  0  0  0  0  0  0  0  0  0
    2.0459   -0.9140   -3.5334 O   0  0  0  0  0  0  0  0  0  0  0  0
    1.4647    0.3109   -3.2983 C   0  0  0  0  0  0  0  0  0  0  0  0
    0.0909    0.5152   -3.4425 C   0  0  0  0  0  0  0  0  0  0  0  0
   -0.4430    1.7880   -3.2380 C   0  0  0  0  0  0  0  0  0  0  0  0
    0.3940    2.8507   -2.8953 C   0  0  0  0  0  0  0  0  0  0  0  0
    1.7688    2.6461   -2.7696 C   0  0  0  0  0  0  0  0  0  0  0  0
    2.3072    1.3765   -2.9815 C   0  0  0  0  0  0  0  0  0  0  0  0
    1.3743   -1.9097   -1.4160 C   0  0  0  0  0  0  0  0  0  0  0  0
   -1.3046    0.9910    5.3291 H   0  0  0  0  0  0  0  0  0  0  0  0
   -2.3215    1.6131    4.0274 H   0  0  0  0  0  0  0  0  0  0  0  0
   -0.8681    2.5044    4.5116 H   0  0  0  0  0  0  0  0  0  0  0  0
    1.5848   -0.0426    3.1369 H   0  0  0  0  0  0  0  0  0  0  0  0
    0.9195   -0.1920    4.7722 H   0  0  0  0  0  0  0  0  0  0  0  0
    1.4513    1.3884    4.1629 H   0  0  0  0  0  0  0  0  0  0  0  0
    0.2976    0.8286    1.2754 H   0  0  0  0  0  0  0  0  0  0  0  0
   -1.4827    2.9046    1.8189 H   0  0  0  0  0  0  0  0  0  0  0  0
   -2.2262   -0.3962    2.6705 H   0  0  0  0  0  0  0  0  0  0  0  0
    0.0397   -3.7950    1.0891 H   0  0  0  0  0  0  0  0  0  0  0  0
    0.3604   -5.1265   -0.8841 H   0  0  0  0  0  0  0  0  0  0  0  0
    0.7526   -5.2333   -3.3145 H   0  0  0  0  0  0  0  0  0  0  0  0
    1.5413   -3.2314   -4.5474 H   0  0  0  0  0  0  0  0  0  0  0  0
   -0.5628   -0.3059   -3.7223 H   0  0  0  0  0  0  0  0  0  0  0  0
   -1.5114    1.9533   -3.3538 H   0  0  0  0  0  0  0  0  0  0  0  0
   -0.0250    3.8421   -2.7411 H   0  0  0  0  0  0  0  0  0  0  0  0
    2.4220    3.4775   -2.5179 H   0  0  0  0  0  0  0  0  0  0  0  0
    3.3785    1.2167   -2.8981 H   0  0  0  0  0  0  0  0  0  0  0  0
    1.5811   -0.9794   -0.8908 H   0  0  0  0  0  0  0  0  0  0  0  0
  1  2  1  0
  2  3  1  0
  2  4  1  0
  4  5  1  0
  5  6  2  3
  6  7  1  0
  6  8  1  0
  8  9  1  0
  8 10  1  0
  8 11  1  0
  4 12  1  0
 12 13  1  0
 13 14  2  0
 13 15  1  0
 15 16  1  0
 16 17  1  0
 17 18  3  0
 16 19  1  0
 19 20  2  0
 20 21  1  0
 21 22  2  0
 22 23  1  0
 23 24  1  0
 24 25  1  0
 25 26  2  0
 26 27  1  0
 27 28  2  0
 28 29  1  0
 29 30  2  0
 23 31  2  0
 12  2  1  0
 31 19  1  0
 30 25  1  0
  1 32  1  0
  1 33  1  0
  1 34  1  0
  3 35  1  0
  3 36  1  0
  3 37  1  0
  4 38  1  0
  5 39  1  0
 12 40  1  0
 16 41  1  0
 20 42  1  0
 21 43  1  0
 22 44  1  0
 26 45  1  0
 27 46  1  0
 28 47  1  0
 29 48  1  0
 30 49  1  0
 31 50  1  0
M  END
>  <Energy>  (1) 
92.64140586526689

>  <Real charge>  (1) 
0

>  <Mult>  (1) 
1

$$$$
mol_745 184
     RDKit          3D

 50 52  0  0  0  0  0  0  0  0999 V2000
   -1.9177    3.1407   -0.2806 C   0  0  0  0  0  0  0  0  0  0  0  0
   -0.4109    3.1687   -0.3828 C   0  0  0  0  0  0  0  0  0  0  0  0
    0.1701    4.5511   -0.2007 C   0  0  0  0  0  0  0  0  0  0  0  0
    0.3325    1.9390    0.1109 C   0  0  0  0  0  0  0  0  0  0  0  0
    1.6092    2.0596    0.8310 C   0  0  0  0  0  0  0  0  0  0  0  0
    1.7870    2.3229    2.1401 C   0  0  0  0  0  0  0  0  0  0  0  0
    0.4199    2.5823    3.1824 Cl  0  0  0  0  0  0  0  0  0  0  0  0
    3.1220    2.4146    2.8185 C   0  0  0  0  0  0  0  0  0  0  0  0
    3.2483    1.5140    3.8281 F   0  0  0  0  0  0  0  0  0  0  0  0
    4.1557    2.1805    1.9652 F   0  0  0  0  0  0  0  0  0  0  0  0
    3.3396    3.6434    3.3547 F   0  0  0  0  0  0  0  0  0  0  0  0
    0.2922    2.2524   -1.3739 C   0  0  0  0  0  0  0  0  0  0  0  0
   -0.4718    1.3937   -2.3080 C   0  0  0  0  0  0  0  0  0  0  0  0
   -1.0854    1.8477   -3.2597 O   0  0  0  0  0  0  0  0  0  0  0  0
   -0.3700    0.0876   -1.9766 O   0  0  0  0  0  0  0  0  0  0  0  0
   -1.0731   -0.8228   -2.8449 C   0  0  0  0  0  0  0  0  0  0  0  0
   -0.2422   -1.1702   -4.0183 C   0  0  0  0  0  0  0  0  0  0  0  0
    0.4169   -1.4356   -4.9382 N   0  0  0  0  0  0  0  0  0  0  0  0
   -1.4205   -2.0576   -2.0236 C   0  0  0  0  0  0  0  0  0  0  0  0
   -2.5914   -2.7846   -2.2988 C   0  0  0  0  0  0  0  0  0  0  0  0
   -2.9142   -3.9231   -1.5555 C   0  0  0  0  0  0  0  0  0  0  0  0
   -2.0785   -4.3456   -0.5226 C   0  0  0  0  0  0  0  0  0  0  0  0
   -0.9224   -3.6269   -0.2287 C   0  0  0  0  0  0  0  0  0  0  0  0
   -0.1265   -4.1004    0.7902 O   0  0  0  0  0  0  0  0  0  0  0  0
    0.3639   -3.1707    1.6803 C   0  0  0  0  0  0  0  0  0  0  0  0
    1.7283   -3.2158    1.9664 C   0  0  0  0  0  0  0  0  0  0  0  0
    2.2750   -2.3172    2.8832 C   0  0  0  0  0  0  0  0  0  0  0  0
    1.4542   -1.3882    3.5239 C   0  0  0  0  0  0  0  0  0  0  0  0
    0.0860   -1.3572    3.2514 C   0  0  0  0  0  0  0  0  0  0  0  0
   -0.4635   -2.2535    2.3340 C   0  0  0  0  0  0  0  0  0  0  0  0
   -0.5764   -2.5095   -0.9934 C   0  0  0  0  0  0  0  0  0  0  0  0
   -2.3222    2.1253   -0.3509 H   0  0  0  0  0  0  0  0  0  0  0  0
   -2.2388    3.5571    0.6801 H   0  0  0  0  0  0  0  0  0  0  0  0
   -2.3645    3.7390   -1.0813 H   0  0  0  0  0  0  0  0  0  0  0  0
    1.2549    4.5744   -0.3481 H   0  0  0  0  0  0  0  0  0  0  0  0
   -0.2730    5.2439   -0.9241 H   0  0  0  0  0  0  0  0  0  0  0  0
   -0.0441    4.9256    0.8055 H   0  0  0  0  0  0  0  0  0  0  0  0
   -0.2685    1.0985    0.4544 H   0  0  0  0  0  0  0  0  0  0  0  0
    2.5033    1.8914    0.2297 H   0  0  0  0  0  0  0  0  0  0  0  0
    1.1942    2.6449   -1.8343 H   0  0  0  0  0  0  0  0  0  0  0  0
   -2.0170   -0.3647   -3.1684 H   0  0  0  0  0  0  0  0  0  0  0  0
   -3.2619   -2.4756   -3.0994 H   0  0  0  0  0  0  0  0  0  0  0  0
   -3.8183   -4.4832   -1.7827 H   0  0  0  0  0  0  0  0  0  0  0  0
   -2.3297   -5.2313    0.0549 H   0  0  0  0  0  0  0  0  0  0  0  0
    2.3635   -3.9479    1.4754 H   0  0  0  0  0  0  0  0  0  0  0  0
    3.3384   -2.3484    3.1070 H   0  0  0  0  0  0  0  0  0  0  0  0
    1.8795   -0.6974    4.2483 H   0  0  0  0  0  0  0  0  0  0  0  0
   -0.5541   -0.6434    3.7638 H   0  0  0  0  0  0  0  0  0  0  0  0
   -1.5326   -2.2395    2.1426 H   0  0  0  0  0  0  0  0  0  0  0  0
    0.3546   -1.9879   -0.7804 H   0  0  0  0  0  0  0  0  0  0  0  0
  1  2  1  0
  2  3  1  0
  2  4  1  0
  4  5  1  0
  5  6  2  3
  6  7  1  0
  6  8  1  0
  8  9  1  0
  8 10  1  0
  8 11  1  0
  4 12  1  0
 12 13  1  0
 13 14  2  0
 13 15  1  0
 15 16  1  0
 16 17  1  0
 17 18  3  0
 16 19  1  0
 19 20  2  0
 20 21  1  0
 21 22  2  0
 22 23  1  0
 23 24  1  0
 24 25  1  0
 25 26  2  0
 26 27  1  0
 27 28  2  0
 28 29  1  0
 29 30  2  0
 23 31  2  0
 12  2  1  0
 31 19  1  0
 30 25  1  0
  1 32  1  0
  1 33  1  0
  1 34  1  0
  3 35  1  0
  3 36  1  0
  3 37  1  0
  4 38  1  0
  5 39  1  0
 12 40  1  0
 16 41  1  0
 20 42  1  0
 21 43  1  0
 22 44  1  0
 26 45  1  0
 27 46  1  0
 28 47  1  0
 29 48  1  0
 30 49  1  0
 31 50  1  0
M  END
>  <Energy>  (2) 
92.90793888833089

>  <Real charge>  (2) 
0

>  <Mult>  (2) 
1

$$$$
mol_745 203
     RDKit          3D

 50 52  0  0  0  0  0  0  0  0999 V2000
   -2.7513   -0.4101    1.4299 C   0  0  0  0  0  0  0  0  0  0  0  0
   -2.7734    0.4290    0.1727 C   0  0  0  0  0  0  0  0  0  0  0  0
   -3.9580    1.3635    0.1070 C   0  0  0  0  0  0  0  0  0  0  0  0
   -1.4235    0.8222   -0.4008 C   0  0  0  0  0  0  0  0  0  0  0  0
   -1.1946    2.1676   -0.9463 C   0  0  0  0  0  0  0  0  0  0  0  0
   -0.3442    2.5237   -1.9285 C   0  0  0  0  0  0  0  0  0  0  0  0
    0.6176    1.3312   -2.7464 Cl  0  0  0  0  0  0  0  0  0  0  0  0
   -0.1217    3.9338   -2.3905 C   0  0  0  0  0  0  0  0  0  0  0  0
   -0.8834    4.8297   -1.7044 F   0  0  0  0  0  0  0  0  0  0  0  0
    1.1678    4.3308   -2.2300 F   0  0  0  0  0  0  0  0  0  0  0  0
   -0.4287    4.0984   -3.7031 F   0  0  0  0  0  0  0  0  0  0  0  0
   -2.2991   -0.1646   -1.1491 C   0  0  0  0  0  0  0  0  0  0  0  0
   -1.8744   -1.5801   -1.2550 C   0  0  0  0  0  0  0  0  0  0  0  0
   -2.5688   -2.5050   -0.8648 O   0  0  0  0  0  0  0  0  0  0  0  0
   -0.6509   -1.6797   -1.8196 O   0  0  0  0  0  0  0  0  0  0  0  0
   -0.0391   -2.9795   -1.7422 C   0  0  0  0  0  0  0  0  0  0  0  0
    0.7440   -3.2287   -2.9727 C   0  0  0  0  0  0  0  0  0  0  0  0
    1.3433   -3.4341   -3.9473 N   0  0  0  0  0  0  0  0  0  0  0  0
    0.8419   -3.0019   -0.5022 C   0  0  0  0  0  0  0  0  0  0  0  0
    0.8195   -4.1011    0.3710 C   0  0  0  0  0  0  0  0  0  0  0  0
    1.6346   -4.1232    1.5059 C   0  0  0  0  0  0  0  0  0  0  0  0
    2.4728   -3.0452    1.7891 C   0  0  0  0  0  0  0  0  0  0  0  0
    2.4859   -1.9385    0.9440 C   0  0  0  0  0  0  0  0  0  0  0  0
    3.3451   -0.9082    1.2538 O   0  0  0  0  0  0  0  0  0  0  0  0
    2.7934    0.3532    1.2657 C   0  0  0  0  0  0  0  0  0  0  0  0
    3.3512    1.3181    0.4276 C   0  0  0  0  0  0  0  0  0  0  0  0
    2.8443    2.6180    0.4355 C   0  0  0  0  0  0  0  0  0  0  0  0
    1.7967    2.9535    1.2949 C   0  0  0  0  0  0  0  0  0  0  0  0
    1.2544    1.9907    2.1477 C   0  0  0  0  0  0  0  0  0  0  0  0
    1.7549    0.6880    2.1377 C   0  0  0  0  0  0  0  0  0  0  0  0
    1.6976   -1.9244   -0.2087 C   0  0  0  0  0  0  0  0  0  0  0  0
   -3.6289   -1.0637    1.4676 H   0  0  0  0  0  0  0  0  0  0  0  0
   -1.8566   -1.0381    1.4986 H   0  0  0  0  0  0  0  0  0  0  0  0
   -2.7666    0.2362    2.3140 H   0  0  0  0  0  0  0  0  0  0  0  0
   -4.0188    1.8981   -0.8468 H   0  0  0  0  0  0  0  0  0  0  0  0
   -4.8901    0.8009    0.2262 H   0  0  0  0  0  0  0  0  0  0  0  0
   -3.9011    2.1059    0.9099 H   0  0  0  0  0  0  0  0  0  0  0  0
   -0.5461    0.4197    0.1017 H   0  0  0  0  0  0  0  0  0  0  0  0
   -1.7442    2.9700   -0.4541 H   0  0  0  0  0  0  0  0  0  0  0  0
   -2.7986    0.1837   -2.0477 H   0  0  0  0  0  0  0  0  0  0  0  0
   -0.8005   -3.7667   -1.6739 H   0  0  0  0  0  0  0  0  0  0  0  0
    0.1693   -4.9525    0.1756 H   0  0  0  0  0  0  0  0  0  0  0  0
    1.6173   -4.9839    2.1706 H   0  0  0  0  0  0  0  0  0  0  0  0
    3.1099   -3.0654    2.6691 H   0  0  0  0  0  0  0  0  0  0  0  0
    4.1744    1.0573   -0.2317 H   0  0  0  0  0  0  0  0  0  0  0  0
    3.2716    3.3710   -0.2224 H   0  0  0  0  0  0  0  0  0  0  0  0
    1.4119    3.9704    1.3079 H   0  0  0  0  0  0  0  0  0  0  0  0
    0.4482    2.2570    2.8263 H   0  0  0  0  0  0  0  0  0  0  0  0
    1.3434   -0.0555    2.8141 H   0  0  0  0  0  0  0  0  0  0  0  0
    1.7517   -1.0715   -0.8824 H   0  0  0  0  0  0  0  0  0  0  0  0
  1  2  1  0
  2  3  1  0
  2  4  1  0
  4  5  1  0
  5  6  2  3
  6  7  1  0
  6  8  1  0
  8  9  1  0
  8 10  1  0
  8 11  1  0
  4 12  1  0
 12 13  1  0
 13 14  2  0
 13 15  1  0
 15 16  1  0
 16 17  1  0
 17 18  3  0
 16 19  1  0
 19 20  2  0
 20 21  1  0
 21 22  2  0
 22 23  1  0
 23 24  1  0
 24 25  1  0
 25 26  2  0
 26 27  1  0
 27 28  2  0
 28 29  1  0
 29 30  2  0
 23 31  2  0
 12  2  1  0
 31 19  1  0
 30 25  1  0
  1 32  1  0
  1 33  1  0
  1 34  1  0
  3 35  1  0
  3 36  1  0
  3 37  1  0
  4 38  1  0
  5 39  1  0
 12 40  1  0
 16 41  1  0
 20 42  1  0
 21 43  1  0
 22 44  1  0
 26 45  1  0
 27 46  1  0
 28 47  1  0
 29 48  1  0
 30 49  1  0
 31 50  1  0
M  END
>  <Energy>  (3) 
92.95863430614

>  <Real charge>  (3) 
0

>  <Mult>  (3) 
1

$$$$
mol_745 324
     RDKit          3D

 50 52  0  0  0  0  0  0  0  0999 V2000
   -4.6758    1.2880   -0.5606 C   0  0  0  0  0  0  0  0  0  0  0  0
   -3.5428    0.3074   -0.3712 C   0  0  0  0  0  0  0  0  0  0  0  0
   -3.9961   -1.0220    0.1872 C   0  0  0  0  0  0  0  0  0  0  0  0
   -2.1523    0.7819    0.0222 C   0  0  0  0  0  0  0  0  0  0  0  0
   -1.8941    2.2002    0.3143 C   0  0  0  0  0  0  0  0  0  0  0  0
   -0.8405    2.9473   -0.0685 C   0  0  0  0  0  0  0  0  0  0  0  0
    0.4150    2.2715   -1.0618 Cl  0  0  0  0  0  0  0  0  0  0  0  0
   -0.6348    4.3856    0.3083 C   0  0  0  0  0  0  0  0  0  0  0  0
   -1.6420    4.8677    1.0860 F   0  0  0  0  0  0  0  0  0  0  0  0
   -0.5706    5.1959   -0.7797 F   0  0  0  0  0  0  0  0  0  0  0  0
    0.5130    4.5727    1.0112 F   0  0  0  0  0  0  0  0  0  0  0  0
   -2.4259    0.3423   -1.4042 C   0  0  0  0  0  0  0  0  0  0  0  0
   -1.8362   -0.9068   -1.9398 C   0  0  0  0  0  0  0  0  0  0  0  0
   -2.4187   -1.6050   -2.7538 O   0  0  0  0  0  0  0  0  0  0  0  0
   -0.6059   -1.1404   -1.4298 O   0  0  0  0  0  0  0  0  0  0  0  0
    0.0006   -2.3801   -1.8418 C   0  0  0  0  0  0  0  0  0  0  0  0
   -0.5669   -3.5130   -1.0742 C   0  0  0  0  0  0  0  0  0  0  0  0
   -1.0183   -4.3941   -0.4649 N   0  0  0  0  0  0  0  0  0  0  0  0
    1.5066   -2.2765   -1.6216 C   0  0  0  0  0  0  0  0  0  0  0  0
    2.3789   -3.1035   -2.3500 C   0  0  0  0  0  0  0  0  0  0  0  0
    3.7584   -3.0339   -2.1489 C   0  0  0  0  0  0  0  0  0  0  0  0
    4.2847   -2.1434   -1.2138 C   0  0  0  0  0  0  0  0  0  0  0  0
    3.4369   -1.3252   -0.4674 C   0  0  0  0  0  0  0  0  0  0  0  0
    4.0600   -0.4608    0.4086 O   0  0  0  0  0  0  0  0  0  0  0  0
    3.3169    0.0605    1.4392 C   0  0  0  0  0  0  0  0  0  0  0  0
    2.8349   -0.7508    2.4681 C   0  0  0  0  0  0  0  0  0  0  0  0
    2.1025   -0.1799    3.5092 C   0  0  0  0  0  0  0  0  0  0  0  0
    1.8716    1.1970    3.5279 C   0  0  0  0  0  0  0  0  0  0  0  0
    2.3798    2.0073    2.5112 C   0  0  0  0  0  0  0  0  0  0  0  0
    3.1118    1.4394    1.4685 C   0  0  0  0  0  0  0  0  0  0  0  0
    2.0554   -1.3873   -0.6777 C   0  0  0  0  0  0  0  0  0  0  0  0
   -4.3544    2.2111   -1.0542 H   0  0  0  0  0  0  0  0  0  0  0  0
   -5.4618    0.8424   -1.1796 H   0  0  0  0  0  0  0  0  0  0  0  0
   -5.1123    1.5549    0.4075 H   0  0  0  0  0  0  0  0  0  0  0  0
   -3.1586   -1.6985    0.3874 H   0  0  0  0  0  0  0  0  0  0  0  0
   -4.6722   -1.5192   -0.5161 H   0  0  0  0  0  0  0  0  0  0  0  0
   -4.5309   -0.8722    1.1310 H   0  0  0  0  0  0  0  0  0  0  0  0
   -1.5704    0.1135    0.6543 H   0  0  0  0  0  0  0  0  0  0  0  0
   -2.6381    2.6785    0.9525 H   0  0  0  0  0  0  0  0  0  0  0  0
   -2.4959    1.1141   -2.1651 H   0  0  0  0  0  0  0  0  0  0  0  0
   -0.1638   -2.5205   -2.9183 H   0  0  0  0  0  0  0  0  0  0  0  0
    1.9919   -3.8111   -3.0819 H   0  0  0  0  0  0  0  0  0  0  0  0
    4.4256   -3.6743   -2.7209 H   0  0  0  0  0  0  0  0  0  0  0  0
    5.3601   -2.0887   -1.0640 H   0  0  0  0  0  0  0  0  0  0  0  0
    3.0271   -1.8200    2.4596 H   0  0  0  0  0  0  0  0  0  0  0  0
    1.7191   -0.8071    4.3100 H   0  0  0  0  0  0  0  0  0  0  0  0
    1.3063    1.6410    4.3437 H   0  0  0  0  0  0  0  0  0  0  0  0
    2.2125    3.0813    2.5342 H   0  0  0  0  0  0  0  0  0  0  0  0
    3.5142    2.0670    0.6784 H   0  0  0  0  0  0  0  0  0  0  0  0
    1.3958   -0.7345   -0.1111 H   0  0  0  0  0  0  0  0  0  0  0  0
  1  2  1  0
  2  3  1  0
  2  4  1  0
  4  5  1  0
  5  6  2  3
  6  7  1  0
  6  8  1  0
  8  9  1  0
  8 10  1  0
  8 11  1  0
  4 12  1  0
 12 13  1  0
 13 14  2  0
 13 15  1  0
 15 16  1  0
 16 17  1  0
 17 18  3  0
 16 19  1  0
 19 20  2  0
 20 21  1  0
 21 22  2  0
 22 23  1  0
 23 24  1  0
 24 25  1  0
 25 26  2  0
 26 27  1  0
 27 28  2  0
 28 29  1  0
 29 30  2  0
 23 31  2  0
 12  2  1  0
 31 19  1  0
 30 25  1  0
  1 32  1  0
  1 33  1  0
  1 34  1  0
  3 35  1  0
  3 36  1  0
  3 37  1  0
  4 38  1  0
  5 39  1  0
 12 40  1  0
 16 41  1  0
 20 42  1  0
 21 43  1  0
 22 44  1  0
 26 45  1  0
 27 46  1  0
 28 47  1  0
 29 48  1  0
 30 49  1  0
 31 50  1  0
M  END
>  <Energy>  (4) 
93.04498615198362

>  <Real charge>  (4) 
0

>  <Mult>  (4) 
1

$$$$
mol_745 30
     RDKit          3D

 50 52  0  0  0  0  0  0  0  0999 V2000
   -4.2394    1.0478   -1.5144 C   0  0  0  0  0  0  0  0  0  0  0  0
   -3.1876    0.1448   -0.9152 C   0  0  0  0  0  0  0  0  0  0  0  0
   -3.7614   -0.8977    0.0162 C   0  0  0  0  0  0  0  0  0  0  0  0
   -1.8054    0.6789   -0.5791 C   0  0  0  0  0  0  0  0  0  0  0  0
   -1.4722    2.0978   -0.7778 C   0  0  0  0  0  0  0  0  0  0  0  0
   -1.6778    3.1124    0.0841 C   0  0  0  0  0  0  0  0  0  0  0  0
   -2.4226    2.8232    1.6275 Cl  0  0  0  0  0  0  0  0  0  0  0  0
   -1.2986    4.5403   -0.1747 C   0  0  0  0  0  0  0  0  0  0  0  0
   -0.6937    4.7043   -1.3831 F   0  0  0  0  0  0  0  0  0  0  0  0
   -2.3759    5.3669   -0.1709 F   0  0  0  0  0  0  0  0  0  0  0  0
   -0.4282    5.0175    0.7532 F   0  0  0  0  0  0  0  0  0  0  0  0
   -1.9968   -0.2098   -1.7948 C   0  0  0  0  0  0  0  0  0  0  0  0
   -1.4533   -1.5880   -1.8327 C   0  0  0  0  0  0  0  0  0  0  0  0
   -1.9532   -2.4663   -2.5163 O   0  0  0  0  0  0  0  0  0  0  0  0
   -0.3505   -1.7147   -1.0620 O   0  0  0  0  0  0  0  0  0  0  0  0
    0.2184   -3.0386   -1.0156 C   0  0  0  0  0  0  0  0  0  0  0  0
   -0.5622   -3.9255   -0.1238 C   0  0  0  0  0  0  0  0  0  0  0  0
   -1.1812   -4.6118    0.5810 N   0  0  0  0  0  0  0  0  0  0  0  0
    1.6477   -2.8754   -0.5183 C   0  0  0  0  0  0  0  0  0  0  0  0
    2.6915   -3.6281   -1.0800 C   0  0  0  0  0  0  0  0  0  0  0  0
    4.0015   -3.4803   -0.6171 C   0  0  0  0  0  0  0  0  0  0  0  0
    4.2868   -2.5750    0.4051 C   0  0  0  0  0  0  0  0  0  0  0  0
    3.2643   -1.8114    0.9637 C   0  0  0  0  0  0  0  0  0  0  0  0
    3.6116   -0.9529    1.9838 O   0  0  0  0  0  0  0  0  0  0  0  0
    2.9723    0.2655    2.0173 C   0  0  0  0  0  0  0  0  0  0  0  0
    3.0418    1.1623    0.9481 C   0  0  0  0  0  0  0  0  0  0  0  0
    2.4027    2.3993    1.0412 C   0  0  0  0  0  0  0  0  0  0  0  0
    1.7089    2.7399    2.2034 C   0  0  0  0  0  0  0  0  0  0  0  0
    1.6566    1.8480    3.2757 C   0  0  0  0  0  0  0  0  0  0  0  0
    2.2975    0.6121    3.1874 C   0  0  0  0  0  0  0  0  0  0  0  0
    1.9482   -1.9812    0.5262 C   0  0  0  0  0  0  0  0  0  0  0  0
   -3.8261    1.7422   -2.2533 H   0  0  0  0  0  0  0  0  0  0  0  0
   -4.7269    1.6367   -0.7305 H   0  0  0  0  0  0  0  0  0  0  0  0
   -5.0057    0.4505   -2.0198 H   0  0  0  0  0  0  0  0  0  0  0  0
   -4.4164   -1.5803   -0.5351 H   0  0  0  0  0  0  0  0  0  0  0  0
   -2.9843   -1.4950    0.5046 H   0  0  0  0  0  0  0  0  0  0  0  0
   -4.3505   -0.4169    0.8043 H   0  0  0  0  0  0  0  0  0  0  0  0
   -1.3015    0.2426    0.2816 H   0  0  0  0  0  0  0  0  0  0  0  0
   -0.9874    2.3381   -1.7244 H   0  0  0  0  0  0  0  0  0  0  0  0
   -1.9648    0.2607   -2.7733 H   0  0  0  0  0  0  0  0  0  0  0  0
    0.2526   -3.4500   -2.0328 H   0  0  0  0  0  0  0  0  0  0  0  0
    2.4959   -4.3409   -1.8795 H   0  0  0  0  0  0  0  0  0  0  0  0
    4.8027   -4.0732   -1.0524 H   0  0  0  0  0  0  0  0  0  0  0  0
    5.3064   -2.4632    0.7646 H   0  0  0  0  0  0  0  0  0  0  0  0
    3.5977    0.9057    0.0509 H   0  0  0  0  0  0  0  0  0  0  0  0
    2.4577    3.1034    0.2151 H   0  0  0  0  0  0  0  0  0  0  0  0
    1.2201    3.7083    2.2815 H   0  0  0  0  0  0  0  0  0  0  0  0
    1.1242    2.1203    4.1836 H   0  0  0  0  0  0  0  0  0  0  0  0
    2.2674   -0.0797    4.0245 H   0  0  0  0  0  0  0  0  0  0  0  0
    1.1490   -1.4135    0.9989 H   0  0  0  0  0  0  0  0  0  0  0  0
  1  2  1  0
  2  3  1  0
  2  4  1  0
  4  5  1  0
  5  6  2  3
  6  7  1  0
  6  8  1  0
  8  9  1  0
  8 10  1  0
  8 11  1  0
  4 12  1  0
 12 13  1  0
 13 14  2  0
 13 15  1  0
 15 16  1  0
 16 17  1  0
 17 18  3  0
 16 19  1  0
 19 20  2  0
 20 21  1  0
 21 22  2  0
 22 23  1  0
 23 24  1  0
 24 25  1  0
 25 26  2  0
 26 27  1  0
 27 28  2  0
 28 29  1  0
 29 30  2  0
 23 31  2  0
 12  2  1  0
 31 19  1  0
 30 25  1  0
  1 32  1  0
  1 33  1  0
  1 34  1  0
  3 35  1  0
  3 36  1  0
  3 37  1  0
  4 38  1  0
  5 39  1  0
 12 40  1  0
 16 41  1  0
 20 42  1  0
 21 43  1  0
 22 44  1  0
 26 45  1  0
 27 46  1  0
 28 47  1  0
 29 48  1  0
 30 49  1  0
 31 50  1  0
M  END
>  <Energy>  (5) 
93.31895117718209

>  <Real charge>  (5) 
0

>  <Mult>  (5) 
1

$$$$
mol_745 369
     RDKit          3D

 50 52  0  0  0  0  0  0  0  0999 V2000
    0.8680   -1.9482   -3.7247 C   0  0  0  0  0  0  0  0  0  0  0  0
    1.9607   -1.4491   -2.8084 C   0  0  0  0  0  0  0  0  0  0  0  0
    3.3305   -1.9622   -3.1846 C   0  0  0  0  0  0  0  0  0  0  0  0
    1.5863   -1.2114   -1.3539 C   0  0  0  0  0  0  0  0  0  0  0  0
    2.5182   -1.5381   -0.2634 C   0  0  0  0  0  0  0  0  0  0  0  0
    2.7690   -0.8226    0.8506 C   0  0  0  0  0  0  0  0  0  0  0  0
    1.9783    0.7006    1.1227 Cl  0  0  0  0  0  0  0  0  0  0  0  0
    3.7156   -1.2411    1.9380 C   0  0  0  0  0  0  0  0  0  0  0  0
    3.0919   -1.3902    3.1357 F   0  0  0  0  0  0  0  0  0  0  0  0
    4.3155   -2.4333    1.6702 F   0  0  0  0  0  0  0  0  0  0  0  0
    4.7176   -0.3428    2.1207 F   0  0  0  0  0  0  0  0  0  0  0  0
    1.8854   -0.0321   -2.2614 C   0  0  0  0  0  0  0  0  0  0  0  0
    0.8100    0.9027   -2.6671 C   0  0  0  0  0  0  0  0  0  0  0  0
    0.7994    1.4494   -3.7579 O   0  0  0  0  0  0  0  0  0  0  0  0
   -0.1029    1.0710   -1.6846 O   0  0  0  0  0  0  0  0  0  0  0  0
   -1.1463    2.0210   -1.9701 C   0  0  0  0  0  0  0  0  0  0  0  0
   -0.6815    3.4002   -1.6989 C   0  0  0  0  0  0  0  0  0  0  0  0
   -0.3158    4.4837   -1.4904 N   0  0  0  0  0  0  0  0  0  0  0  0
   -2.3593    1.6713   -1.1138 C   0  0  0  0  0  0  0  0  0  0  0  0
   -3.6417    2.0835   -1.5162 C   0  0  0  0  0  0  0  0  0  0  0  0
   -4.7631    1.7778   -0.7428 C   0  0  0  0  0  0  0  0  0  0  0  0
   -4.6191    1.0631    0.4456 C   0  0  0  0  0  0  0  0  0  0  0  0
   -3.3537    0.6641    0.8741 C   0  0  0  0  0  0  0  0  0  0  0  0
   -3.3139   -0.0689    2.0412 O   0  0  0  0  0  0  0  0  0  0  0  0
   -2.1691   -0.0075    2.7992 C   0  0  0  0  0  0  0  0  0  0  0  0
   -1.5005   -1.2027    3.0647 C   0  0  0  0  0  0  0  0  0  0  0  0
   -0.3493   -1.1905    3.8519 C   0  0  0  0  0  0  0  0  0  0  0  0
    0.1188    0.0120    4.3837 C   0  0  0  0  0  0  0  0  0  0  0  0
   -0.5666    1.2026    4.1362 C   0  0  0  0  0  0  0  0  0  0  0  0
   -1.7187    1.1941    3.3496 C   0  0  0  0  0  0  0  0  0  0  0  0
   -2.2311    0.9588    0.0936 C   0  0  0  0  0  0  0  0  0  0  0  0
    1.0312   -1.5845   -4.7445 H   0  0  0  0  0  0  0  0  0  0  0  0
    0.8643   -3.0431   -3.7465 H   0  0  0  0  0  0  0  0  0  0  0  0
   -0.1271   -1.6217   -3.4045 H   0  0  0  0  0  0  0  0  0  0  0  0
    3.3753   -3.0493   -3.0615 H   0  0  0  0  0  0  0  0  0  0  0  0
    3.5481   -1.7267   -4.2319 H   0  0  0  0  0  0  0  0  0  0  0  0
    4.1267   -1.5188   -2.5775 H   0  0  0  0  0  0  0  0  0  0  0  0
    0.5475   -1.3909   -1.0834 H   0  0  0  0  0  0  0  0  0  0  0  0
    3.0326   -2.4941   -0.3681 H   0  0  0  0  0  0  0  0  0  0  0  0
    2.8322    0.4825   -2.1229 H   0  0  0  0  0  0  0  0  0  0  0  0
   -1.4515    1.9193   -3.0201 H   0  0  0  0  0  0  0  0  0  0  0  0
   -3.7800    2.6467   -2.4381 H   0  0  0  0  0  0  0  0  0  0  0  0
   -5.7513    2.0964   -1.0660 H   0  0  0  0  0  0  0  0  0  0  0  0
   -5.4949    0.8209    1.0423 H   0  0  0  0  0  0  0  0  0  0  0  0
   -1.8737   -2.1374    2.6566 H   0  0  0  0  0  0  0  0  0  0  0  0
    0.1822   -2.1163    4.0562 H   0  0  0  0  0  0  0  0  0  0  0  0
    1.0179    0.0204    4.9955 H   0  0  0  0  0  0  0  0  0  0  0  0
   -0.2044    2.1365    4.5585 H   0  0  0  0  0  0  0  0  0  0  0  0
   -2.2584    2.1194    3.1689 H   0  0  0  0  0  0  0  0  0  0  0  0
   -1.2490    0.6259    0.4217 H   0  0  0  0  0  0  0  0  0  0  0  0
  1  2  1  0
  2  3  1  0
  2  4  1  0
  4  5  1  0
  5  6  2  3
  6  7  1  0
  6  8  1  0
  8  9  1  0
  8 10  1  0
  8 11  1  0
  4 12  1  0
 12 13  1  0
 13 14  2  0
 13 15  1  0
 15 16  1  0
 16 17  1  0
 17 18  3  0
 16 19  1  0
 19 20  2  0
 20 21  1  0
 21 22  2  0
 22 23  1  0
 23 24  1  0
 24 25  1  0
 25 26  2  0
 26 27  1  0
 27 28  2  0
 28 29  1  0
 29 30  2  0
 23 31  2  0
 12  2  1  0
 31 19  1  0
 30 25  1  0
  1 32  1  0
  1 33  1  0
  1 34  1  0
  3 35  1  0
  3 36  1  0
  3 37  1  0
  4 38  1  0
  5 39  1  0
 12 40  1  0
 16 41  1  0
 20 42  1  0
 21 43  1  0
 22 44  1  0
 26 45  1  0
 27 46  1  0
 28 47  1  0
 29 48  1  0
 30 49  1  0
 31 50  1  0
M  END
>  <Energy>  (6) 
93.36753914228257

>  <Real charge>  (6) 
0

>  <Mult>  (6) 
1

$$$$
mol_745 405
     RDKit          3D

 50 52  0  0  0  0  0  0  0  0999 V2000
   -3.8371   -1.2940   -2.2498 C   0  0  0  0  0  0  0  0  0  0  0  0
   -2.9022   -1.1154   -1.0771 C   0  0  0  0  0  0  0  0  0  0  0  0
   -3.6263   -0.8680    0.2264 C   0  0  0  0  0  0  0  0  0  0  0  0
   -1.5545   -0.4366   -1.2541 C   0  0  0  0  0  0  0  0  0  0  0  0
   -1.1456    0.1091   -2.5552 C   0  0  0  0  0  0  0  0  0  0  0  0
   -1.4712    1.3103   -3.0694 C   0  0  0  0  0  0  0  0  0  0  0  0
   -0.8455    1.7240   -4.6434 Cl  0  0  0  0  0  0  0  0  0  0  0  0
   -2.3253    2.3737   -2.4407 C   0  0  0  0  0  0  0  0  0  0  0  0
   -3.4781    2.5667   -3.1348 F   0  0  0  0  0  0  0  0  0  0  0  0
   -1.6908    3.5763   -2.3967 F   0  0  0  0  0  0  0  0  0  0  0  0
   -2.6914    2.0939   -1.1621 F   0  0  0  0  0  0  0  0  0  0  0  0
   -1.6249   -1.9433   -1.0779 C   0  0  0  0  0  0  0  0  0  0  0  0
   -1.1278   -2.5947    0.1576 C   0  0  0  0  0  0  0  0  0  0  0  0
   -1.5560   -3.6689    0.5462 O   0  0  0  0  0  0  0  0  0  0  0  0
   -0.1485   -1.8727    0.7441 O   0  0  0  0  0  0  0  0  0  0  0  0
    0.3728   -2.4167    1.9735 C   0  0  0  0  0  0  0  0  0  0  0  0
   -0.5496   -2.1662    3.1033 C   0  0  0  0  0  0  0  0  0  0  0  0
   -1.2800   -1.9618    3.9840 N   0  0  0  0  0  0  0  0  0  0  0  0
    1.7193   -1.7438    2.2000 C   0  0  0  0  0  0  0  0  0  0  0  0
    2.8080   -2.4700    2.7082 C   0  0  0  0  0  0  0  0  0  0  0  0
    4.0421   -1.8472    2.9133 C   0  0  0  0  0  0  0  0  0  0  0  0
    4.2075   -0.4966    2.6048 C   0  0  0  0  0  0  0  0  0  0  0  0
    3.1404    0.2342    2.0879 C   0  0  0  0  0  0  0  0  0  0  0  0
    3.3646    1.5667    1.8182 O   0  0  0  0  0  0  0  0  0  0  0  0
    2.7647    2.0827    0.6915 C   0  0  0  0  0  0  0  0  0  0  0  0
    3.0014    1.5501   -0.5786 C   0  0  0  0  0  0  0  0  0  0  0  0
    2.3894    2.1236   -1.6938 C   0  0  0  0  0  0  0  0  0  0  0  0
    1.5568    3.2327   -1.5388 C   0  0  0  0  0  0  0  0  0  0  0  0
    1.3370    3.7727   -0.2706 C   0  0  0  0  0  0  0  0  0  0  0  0
    1.9493    3.2034    0.8462 C   0  0  0  0  0  0  0  0  0  0  0  0
    1.8953   -0.3762    1.9178 C   0  0  0  0  0  0  0  0  0  0  0  0
   -4.5588   -2.0904   -2.0395 H   0  0  0  0  0  0  0  0  0  0  0  0
   -3.3098   -1.5652   -3.1704 H   0  0  0  0  0  0  0  0  0  0  0  0
   -4.3928   -0.3691   -2.4367 H   0  0  0  0  0  0  0  0  0  0  0  0
   -2.9392   -0.6587    1.0529 H   0  0  0  0  0  0  0  0  0  0  0  0
   -4.2954   -0.0065    0.1290 H   0  0  0  0  0  0  0  0  0  0  0  0
   -4.2275   -1.7416    0.4986 H   0  0  0  0  0  0  0  0  0  0  0  0
   -1.1783    0.1448   -0.4139 H   0  0  0  0  0  0  0  0  0  0  0  0
   -0.4966   -0.5356   -3.1477 H   0  0  0  0  0  0  0  0  0  0  0  0
   -1.4523   -2.5614   -1.9543 H   0  0  0  0  0  0  0  0  0  0  0  0
    0.5423   -3.4935    1.8450 H   0  0  0  0  0  0  0  0  0  0  0  0
    2.7067   -3.5259    2.9537 H   0  0  0  0  0  0  0  0  0  0  0  0
    4.8782   -2.4155    3.3145 H   0  0  0  0  0  0  0  0  0  0  0  0
    5.1688   -0.0153    2.7643 H   0  0  0  0  0  0  0  0  0  0  0  0
    3.6640    0.6984   -0.7028 H   0  0  0  0  0  0  0  0  0  0  0  0
    2.5711    1.7149   -2.6845 H   0  0  0  0  0  0  0  0  0  0  0  0
    1.0879    3.6877   -2.4084 H   0  0  0  0  0  0  0  0  0  0  0  0
    0.6953    4.6428   -0.1547 H   0  0  0  0  0  0  0  0  0  0  0  0
    1.7876    3.6278    1.8332 H   0  0  0  0  0  0  0  0  0  0  0  0
    1.0552    0.2144    1.5574 H   0  0  0  0  0  0  0  0  0  0  0  0
  1  2  1  0
  2  3  1  0
  2  4  1  0
  4  5  1  0
  5  6  2  3
  6  7  1  0
  6  8  1  0
  8  9  1  0
  8 10  1  0
  8 11  1  0
  4 12  1  0
 12 13  1  0
 13 14  2  0
 13 15  1  0
 15 16  1  0
 16 17  1  0
 17 18  3  0
 16 19  1  0
 19 20  2  0
 20 21  1  0
 21 22  2  0
 22 23  1  0
 23 24  1  0
 24 25  1  0
 25 26  2  0
 26 27  1  0
 27 28  2  0
 28 29  1  0
 29 30  2  0
 23 31  2  0
 12  2  1  0
 31 19  1  0
 30 25  1  0
  1 32  1  0
  1 33  1  0
  1 34  1  0
  3 35  1  0
  3 36  1  0
  3 37  1  0
  4 38  1  0
  5 39  1  0
 12 40  1  0
 16 41  1  0
 20 42  1  0
 21 43  1  0
 22 44  1  0
 26 45  1  0
 27 46  1  0
 28 47  1  0
 29 48  1  0
 30 49  1  0
 31 50  1  0
M  END
>  <Energy>  (7) 
93.48305389808303

>  <Real charge>  (7) 
0

>  <Mult>  (7) 
1

$$$$
mol_745 466
     RDKit          3D

 50 52  0  0  0  0  0  0  0  0999 V2000
   -2.2381    0.2678   -1.2525 C   0  0  0  0  0  0  0  0  0  0  0  0
   -2.6599   -0.2230    0.1138 C   0  0  0  0  0  0  0  0  0  0  0  0
   -4.1013    0.0914    0.4374 C   0  0  0  0  0  0  0  0  0  0  0  0
   -1.5931   -0.2291    1.1956 C   0  0  0  0  0  0  0  0  0  0  0  0
   -1.9066    0.1040    2.5922 C   0  0  0  0  0  0  0  0  0  0  0  0
   -2.1616    1.3184    3.1154 C   0  0  0  0  0  0  0  0  0  0  0  0
   -2.4907    1.4160    4.8263 Cl  0  0  0  0  0  0  0  0  0  0  0  0
   -2.2092    2.6393    2.4047 C   0  0  0  0  0  0  0  0  0  0  0  0
   -3.4373    3.2165    2.4945 F   0  0  0  0  0  0  0  0  0  0  0  0
   -1.9280    2.5584    1.0778 F   0  0  0  0  0  0  0  0  0  0  0  0
   -1.3216    3.5294    2.9240 F   0  0  0  0  0  0  0  0  0  0  0  0
   -2.1136   -1.5425    0.6386 C   0  0  0  0  0  0  0  0  0  0  0  0
   -1.2555   -2.4098   -0.1997 C   0  0  0  0  0  0  0  0  0  0  0  0
   -1.6611   -2.9188   -1.2323 O   0  0  0  0  0  0  0  0  0  0  0  0
   -0.0312   -2.5808    0.3509 O   0  0  0  0  0  0  0  0  0  0  0  0
    0.8755   -3.3809   -0.4317 C   0  0  0  0  0  0  0  0  0  0  0  0
    1.7885   -4.1100    0.4778 C   0  0  0  0  0  0  0  0  0  0  0  0
    2.4888   -4.6927    1.1998 N   0  0  0  0  0  0  0  0  0  0  0  0
    1.6376   -2.4669   -1.3768 C   0  0  0  0  0  0  0  0  0  0  0  0
    1.7159   -2.7665   -2.7468 C   0  0  0  0  0  0  0  0  0  0  0  0
    2.4256   -1.9357   -3.6173 C   0  0  0  0  0  0  0  0  0  0  0  0
    3.0561   -0.7907   -3.1333 C   0  0  0  0  0  0  0  0  0  0  0  0
    2.9628   -0.4680   -1.7816 C   0  0  0  0  0  0  0  0  0  0  0  0
    3.6203    0.6634   -1.3547 O   0  0  0  0  0  0  0  0  0  0  0  0
    2.9039    1.5214   -0.5512 C   0  0  0  0  0  0  0  0  0  0  0  0
    1.6632    2.0353   -0.9363 C   0  0  0  0  0  0  0  0  0  0  0  0
    0.9960    2.9282   -0.0982 C   0  0  0  0  0  0  0  0  0  0  0  0
    1.5710    3.3112    1.1144 C   0  0  0  0  0  0  0  0  0  0  0  0
    2.8192    2.8106    1.4868 C   0  0  0  0  0  0  0  0  0  0  0  0
    3.4919    1.9214    0.6485 C   0  0  0  0  0  0  0  0  0  0  0  0
    2.2777   -1.3094   -0.9008 C   0  0  0  0  0  0  0  0  0  0  0  0
   -2.8215   -0.2315   -2.0330 H   0  0  0  0  0  0  0  0  0  0  0  0
   -2.4066    1.3467   -1.3354 H   0  0  0  0  0  0  0  0  0  0  0  0
   -1.1772    0.0842   -1.4530 H   0  0  0  0  0  0  0  0  0  0  0  0
   -4.7596   -0.3305   -0.3296 H   0  0  0  0  0  0  0  0  0  0  0  0
   -4.2596    1.1744    0.4637 H   0  0  0  0  0  0  0  0  0  0  0  0
   -4.4160   -0.3213    1.4015 H   0  0  0  0  0  0  0  0  0  0  0  0
   -0.5867    0.0662    0.9031 H   0  0  0  0  0  0  0  0  0  0  0  0
   -1.9047   -0.7462    3.2752 H   0  0  0  0  0  0  0  0  0  0  0  0
   -2.7874   -2.1252    1.2603 H   0  0  0  0  0  0  0  0  0  0  0  0
    0.3223   -4.1388   -1.0018 H   0  0  0  0  0  0  0  0  0  0  0  0
    1.2249   -3.6506   -3.1509 H   0  0  0  0  0  0  0  0  0  0  0  0
    2.4873   -2.1818   -4.6748 H   0  0  0  0  0  0  0  0  0  0  0  0
    3.6121   -0.1467   -3.8093 H   0  0  0  0  0  0  0  0  0  0  0  0
    1.2193    1.7545   -1.8870 H   0  0  0  0  0  0  0  0  0  0  0  0
    0.0309    3.3324   -0.3937 H   0  0  0  0  0  0  0  0  0  0  0  0
    1.0511    4.0114    1.7643 H   0  0  0  0  0  0  0  0  0  0  0  0
    3.2714    3.1205    2.4254 H   0  0  0  0  0  0  0  0  0  0  0  0
    4.4687    1.5384    0.9306 H   0  0  0  0  0  0  0  0  0  0  0  0
    2.2461   -1.0640    0.1590 H   0  0  0  0  0  0  0  0  0  0  0  0
  1  2  1  0
  2  3  1  0
  2  4  1  0
  4  5  1  0
  5  6  2  3
  6  7  1  0
  6  8  1  0
  8  9  1  0
  8 10  1  0
  8 11  1  0
  4 12  1  0
 12 13  1  0
 13 14  2  0
 13 15  1  0
 15 16  1  0
 16 17  1  0
 17 18  3  0
 16 19  1  0
 19 20  2  0
 20 21  1  0
 21 22  2  0
 22 23  1  0
 23 24  1  0
 24 25  1  0
 25 26  2  0
 26 27  1  0
 27 28  2  0
 28 29  1  0
 29 30  2  0
 23 31  2  0
 12  2  1  0
 31 19  1  0
 30 25  1  0
  1 32  1  0
  1 33  1  0
  1 34  1  0
  3 35  1  0
  3 36  1  0
  3 37  1  0
  4 38  1  0
  5 39  1  0
 12 40  1  0
 16 41  1  0
 20 42  1  0
 21 43  1  0
 22 44  1  0
 26 45  1  0
 27 46  1  0
 28 47  1  0
 29 48  1  0
 30 49  1  0
 31 50  1  0
M  END
>  <Energy>  (8) 
93.5307417283822

>  <Real charge>  (8) 
0

>  <Mult>  (8) 
1

$$$$
