mol_869 6
     RDKit          3D

 17 17  0  0  0  0  0  0  0  0999 V2000
   -2.3908    0.6803    0.2322 C   0  0  0  0  0  0  0  0  0  0  0  0
   -1.6322   -0.5877   -0.1265 C   0  0  0  0  0  0  0  0  0  0  0  0
   -0.1427   -0.3904   -0.0239 C   0  0  0  0  0  0  0  0  0  0  0  0
    0.5811    0.1120   -1.1029 C   0  0  0  0  0  0  0  0  0  0  0  0
    1.9536    0.2984   -0.9632 C   0  0  0  0  0  0  0  0  0  0  0  0
    2.5637   -0.0159    0.2445 C   0  0  0  0  0  0  0  0  0  0  0  0
    1.7707   -0.5047    1.2683 C   0  0  0  0  0  0  0  0  0  0  0  0
    0.4374   -0.6955    1.1619 N   0  0  0  0  0  0  0  0  0  0  0  0
   -2.1609    1.0041    1.2531 H   0  0  0  0  0  0  0  0  0  0  0  0
   -2.1356    1.5019   -0.4457 H   0  0  0  0  0  0  0  0  0  0  0  0
   -3.4696    0.5081    0.1650 H   0  0  0  0  0  0  0  0  0  0  0  0
   -1.8968   -0.9118   -1.1398 H   0  0  0  0  0  0  0  0  0  0  0  0
   -1.9350   -1.3968    0.5489 H   0  0  0  0  0  0  0  0  0  0  0  0
    0.0882    0.3565   -2.0381 H   0  0  0  0  0  0  0  0  0  0  0  0
    2.5407    0.6871   -1.7901 H   0  0  0  0  0  0  0  0  0  0  0  0
    3.6299    0.1179    0.3861 H   0  0  0  0  0  0  0  0  0  0  0  0
    2.1983   -0.7637    2.2324 H   0  0  0  0  0  0  0  0  0  0  0  0
  1  2  1  0
  2  3  1  0
  3  4  2  0
  4  5  1  0
  5  6  2  0
  6  7  1  0
  7  8  2  0
  8  3  1  0
  1  9  1  0
  1 10  1  0
  1 11  1  0
  2 12  1  0
  2 13  1  0
  4 14  1  0
  5 15  1  0
  6 16  1  0
  7 17  1  0
M  END
>  <Energy>  (1) 
15.969059184016826

>  <Real charge>  (1) 
0

>  <Mult>  (1) 
1

$$$$
mol_869 59
     RDKit          3D

 17 17  0  0  0  0  0  0  0  0999 V2000
   -2.4765    0.7794    0.0973 C   0  0  0  0  0  0  0  0  0  0  0  0
   -1.6210   -0.4732   -0.0398 C   0  0  0  0  0  0  0  0  0  0  0  0
   -0.1359   -0.2167   -0.1486 C   0  0  0  0  0  0  0  0  0  0  0  0
    0.7317   -1.3003   -0.2805 C   0  0  0  0  0  0  0  0  0  0  0  0
    2.1001   -1.0638   -0.3806 C   0  0  0  0  0  0  0  0  0  0  0  0
    2.5684    0.2429   -0.3467 C   0  0  0  0  0  0  0  0  0  0  0  0
    1.6428    1.2627   -0.2134 C   0  0  0  0  0  0  0  0  0  0  0  0
    0.3102    1.0618   -0.1143 N   0  0  0  0  0  0  0  0  0  0  0  0
   -2.3563    1.4393   -0.7685 H   0  0  0  0  0  0  0  0  0  0  0  0
   -2.2113    1.3452    0.9968 H   0  0  0  0  0  0  0  0  0  0  0  0
   -3.5344    0.5073    0.1697 H   0  0  0  0  0  0  0  0  0  0  0  0
   -1.9449   -1.0231   -0.9316 H   0  0  0  0  0  0  0  0  0  0  0  0
   -1.7995   -1.1167    0.8300 H   0  0  0  0  0  0  0  0  0  0  0  0
    0.3501   -2.3160   -0.3054 H   0  0  0  0  0  0  0  0  0  0  0  0
    2.7934   -1.8933   -0.4840 H   0  0  0  0  0  0  0  0  0  0  0  0
    3.6271    0.4622   -0.4220 H   0  0  0  0  0  0  0  0  0  0  0  0
    1.9559    2.3022   -0.1815 H   0  0  0  0  0  0  0  0  0  0  0  0
  1  2  1  0
  2  3  1  0
  3  4  2  0
  4  5  1  0
  5  6  2  0
  6  7  1  0
  7  8  2  0
  8  3  1  0
  1  9  1  0
  1 10  1  0
  1 11  1  0
  2 12  1  0
  2 13  1  0
  4 14  1  0
  5 15  1  0
  6 16  1  0
  7 17  1  0
M  END
>  <Energy>  (2) 
16.563511222068325

>  <Real charge>  (2) 
0

>  <Mult>  (2) 
1

$$$$
