mol_1068 543
     RDKit          3D

 62 65  0  0  0  0  0  0  0  0999 V2000
    3.5341    0.4011   -2.1527 C   0  0  0  0  0  0  0  0  0  0  0  0
    2.5165    0.9960   -1.1836 C   0  0  0  0  0  0  0  0  0  0  0  0
    1.1179    1.1471   -1.8355 C   0  0  0  0  0  0  0  0  0  0  0  0
    0.1739    0.3498   -0.9362 C   0  0  0  0  0  0  0  0  0  0  0  0
   -1.3233    0.6885   -0.9649 C   0  0  0  0  0  0  0  0  0  0  0  0
   -1.8751    0.6241   -2.3983 C   0  0  0  0  0  0  0  0  0  0  0  0
   -3.3660    0.9367   -2.4412 C   0  0  0  0  0  0  0  0  0  0  0  0
   -4.1238    0.0211   -1.5149 C   0  0  0  0  0  0  0  0  0  0  0  0
   -5.1003   -0.7631   -2.0070 C   0  0  0  0  0  0  0  0  0  0  0  0
   -5.8314   -1.7285   -1.1636 C   0  0  0  0  0  0  0  0  0  0  0  0
   -6.7274   -2.4260   -1.6214 O   0  0  0  0  0  0  0  0  0  0  0  0
   -5.4407   -1.8112    0.2540 C   0  0  0  0  0  0  0  0  0  0  0  0
   -4.4701   -1.0317    0.7486 C   0  0  0  0  0  0  0  0  0  0  0  0
   -3.6656   -0.0004   -0.0420 C   0  0  0  0  0  0  0  0  0  0  0  0
   -4.0065    1.3644    0.6020 C   0  0  0  0  0  0  0  0  0  0  0  0
   -2.1027   -0.2878   -0.0149 C   0  0  0  0  0  0  0  0  0  0  0  0
   -1.9238   -1.5596   -0.5319 F   0  0  0  0  0  0  0  0  0  0  0  0
   -1.4436   -0.3312    1.4024 C   0  0  0  0  0  0  0  0  0  0  0  0
   -1.9624   -1.4041    2.1953 O   0  0  0  0  0  0  0  0  0  0  0  0
    0.0859   -0.5378    1.3714 C   0  0  0  0  0  0  0  0  0  0  0  0
    0.8017    0.4792    0.4715 C   0  0  0  0  0  0  0  0  0  0  0  0
    0.6588    1.8989    1.0847 C   0  0  0  0  0  0  0  0  0  0  0  0
    2.2949    0.1697    0.1272 C   0  0  0  0  0  0  0  0  0  0  0  0
    2.4291   -1.2238   -0.1601 O   0  0  0  0  0  0  0  0  0  0  0  0
    3.2724    0.5704    1.2563 C   0  0  0  0  0  0  0  0  0  0  0  0
    3.9085    1.6280    1.2370 O   0  0  0  0  0  0  0  0  0  0  0  0
    3.4272   -0.4067    2.4222 C   0  0  0  0  0  0  0  0  0  0  0  0
    4.7950   -0.6602    2.7492 O   0  0  0  0  0  0  0  0  0  0  0  0
    5.5052   -1.2448    1.7443 C   0  0  0  0  0  0  0  0  0  0  0  0
    6.9297   -1.4413    2.1607 C   0  0  0  0  0  0  0  0  0  0  0  0
    5.0453   -1.5655    0.6547 O   0  0  0  0  0  0  0  0  0  0  0  0
    4.5069    0.2772   -1.6664 H   0  0  0  0  0  0  0  0  0  0  0  0
    3.6726    1.0637   -3.0138 H   0  0  0  0  0  0  0  0  0  0  0  0
    3.2119   -0.5728   -2.5356 H   0  0  0  0  0  0  0  0  0  0  0  0
    2.8647    2.0079   -0.9398 H   0  0  0  0  0  0  0  0  0  0  0  0
    0.8330    2.2054   -1.8639 H   0  0  0  0  0  0  0  0  0  0  0  0
    1.0933    0.7750   -2.8654 H   0  0  0  0  0  0  0  0  0  0  0  0
    0.2584   -0.6980   -1.2664 H   0  0  0  0  0  0  0  0  0  0  0  0
   -1.4556    1.7182   -0.6165 H   0  0  0  0  0  0  0  0  0  0  0  0
   -1.6928   -0.3700   -2.8268 H   0  0  0  0  0  0  0  0  0  0  0  0
   -1.3520    1.3444   -3.0380 H   0  0  0  0  0  0  0  0  0  0  0  0
   -3.7170    0.8394   -3.4759 H   0  0  0  0  0  0  0  0  0  0  0  0
   -3.5422    1.9804   -2.1568 H   0  0  0  0  0  0  0  0  0  0  0  0
   -5.3965   -0.7500   -3.0499 H   0  0  0  0  0  0  0  0  0  0  0  0
   -5.9895   -2.5169    0.8658 H   0  0  0  0  0  0  0  0  0  0  0  0
   -4.2656   -1.1166    1.8140 H   0  0  0  0  0  0  0  0  0  0  0  0
   -3.4526    2.1956    0.1564 H   0  0  0  0  0  0  0  0  0  0  0  0
   -3.7892    1.3721    1.6764 H   0  0  0  0  0  0  0  0  0  0  0  0
   -5.0734    1.5989    0.4918 H   0  0  0  0  0  0  0  0  0  0  0  0
   -1.6665    0.5911    1.9457 H   0  0  0  0  0  0  0  0  0  0  0  0
   -1.9130   -2.2051    1.6354 H   0  0  0  0  0  0  0  0  0  0  0  0
    0.2899   -1.5648    1.0412 H   0  0  0  0  0  0  0  0  0  0  0  0
    0.4744   -0.4878    2.3965 H   0  0  0  0  0  0  0  0  0  0  0  0
    1.1598    2.6688    0.4905 H   0  0  0  0  0  0  0  0  0  0  0  0
    1.0929    1.9302    2.0905 H   0  0  0  0  0  0  0  0  0  0  0  0
   -0.3822    2.2153    1.1885 H   0  0  0  0  0  0  0  0  0  0  0  0
    3.3846   -1.4211   -0.2832 H   0  0  0  0  0  0  0  0  0  0  0  0
    2.9172   -1.3567    2.2377 H   0  0  0  0  0  0  0  0  0  0  0  0
    2.9499    0.0489    3.2960 H   0  0  0  0  0  0  0  0  0  0  0  0
    7.3870   -0.4742    2.3839 H   0  0  0  0  0  0  0  0  0  0  0  0
    7.4849   -1.9087    1.3423 H   0  0  0  0  0  0  0  0  0  0  0  0
    6.9738   -2.0990    3.0322 H   0  0  0  0  0  0  0  0  0  0  0  0
  1  2  1  0
  2  3  1  0
  3  4  1  0
  4  5  1  0
  5  6  1  0
  6  7  1  0
  7  8  1  0
  8  9  2  0
  9 10  1  0
 10 11  2  0
 10 12  1  0
 12 13  2  0
 13 14  1  0
 14 15  1  0
 14 16  1  0
 16 17  1  0
 16 18  1  0
 18 19  1  0
 18 20  1  0
 20 21  1  0
 21 22  1  0
 21 23  1  0
 23 24  1  0
 23 25  1  0
 25 26  2  0
 25 27  1  0
 27 28  1  0
 28 29  1  0
 29 30  1  0
 29 31  2  0
 14  8  1  0
 16  5  1  0
 21  4  1  0
 23  2  1  0
  1 32  1  0
  1 33  1  0
  1 34  1  0
  2 35  1  0
  3 36  1  0
  3 37  1  0
  4 38  1  0
  5 39  1  0
  6 40  1  0
  6 41  1  0
  7 42  1  0
  7 43  1  0
  9 44  1  0
 12 45  1  0
 13 46  1  0
 15 47  1  0
 15 48  1  0
 15 49  1  0
 18 50  1  0
 19 51  1  0
 20 52  1  0
 20 53  1  0
 22 54  1  0
 22 55  1  0
 22 56  1  0
 24 57  1  0
 27 58  1  0
 27 59  1  0
 30 60  1  0
 30 61  1  0
 30 62  1  0
M  END
>  <Energy>  (1) 
144.80860663402504

>  <Real charge>  (1) 
0

>  <Mult>  (1) 
1

$$$$
mol_1068 575
     RDKit          3D

 62 65  0  0  0  0  0  0  0  0999 V2000
    1.9305   -2.3871    3.0271 C   0  0  0  0  0  0  0  0  0  0  0  0
    1.3968   -1.4033    1.9879 C   0  0  0  0  0  0  0  0  0  0  0  0
   -0.0733   -1.6968    1.6279 C   0  0  0  0  0  0  0  0  0  0  0  0
   -0.1870   -1.6374    0.0890 C   0  0  0  0  0  0  0  0  0  0  0  0
   -1.5222   -1.0935   -0.4793 C   0  0  0  0  0  0  0  0  0  0  0  0
   -2.7160   -1.8539    0.1330 C   0  0  0  0  0  0  0  0  0  0  0  0
   -4.0533   -1.3840   -0.4265 C   0  0  0  0  0  0  0  0  0  0  0  0
   -4.1903    0.1067   -0.2539 C   0  0  0  0  0  0  0  0  0  0  0  0
   -5.2044    0.6188    0.4660 C   0  0  0  0  0  0  0  0  0  0  0  0
   -5.3354    2.0697    0.7073 C   0  0  0  0  0  0  0  0  0  0  0  0
   -6.2708    2.5274    1.3514 O   0  0  0  0  0  0  0  0  0  0  0  0
   -4.2928    2.9456    0.1414 C   0  0  0  0  0  0  0  0  0  0  0  0
   -3.2816    2.4405   -0.5777 C   0  0  0  0  0  0  0  0  0  0  0  0
   -3.0805    0.9580   -0.8973 C   0  0  0  0  0  0  0  0  0  0  0  0
   -3.2264    0.8354   -2.4318 C   0  0  0  0  0  0  0  0  0  0  0  0
   -1.6865    0.4480   -0.3367 C   0  0  0  0  0  0  0  0  0  0  0  0
   -1.6908    0.7209    1.0185 F   0  0  0  0  0  0  0  0  0  0  0  0
   -0.4426    1.1814   -0.9004 C   0  0  0  0  0  0  0  0  0  0  0  0
   -0.3536    1.1102   -2.3177 O   0  0  0  0  0  0  0  0  0  0  0  0
    0.8569    0.6544   -0.2726 C   0  0  0  0  0  0  0  0  0  0  0  0
    1.0786   -0.8776   -0.3812 C   0  0  0  0  0  0  0  0  0  0  0  0
    1.4347   -1.2698   -1.8315 C   0  0  0  0  0  0  0  0  0  0  0  0
    2.1470   -1.4030    0.6412 C   0  0  0  0  0  0  0  0  0  0  0  0
    2.4744   -2.7711    0.3262 O   0  0  0  0  0  0  0  0  0  0  0  0
    3.4876   -0.6360    0.5983 C   0  0  0  0  0  0  0  0  0  0  0  0
    4.3308   -0.9469   -0.2546 O   0  0  0  0  0  0  0  0  0  0  0  0
    3.7585    0.4619    1.6246 C   0  0  0  0  0  0  0  0  0  0  0  0
    4.9834    1.1550    1.3728 O   0  0  0  0  0  0  0  0  0  0  0  0
    4.9187    2.0594    0.3580 C   0  0  0  0  0  0  0  0  0  0  0  0
    6.2705    2.6515    0.1055 C   0  0  0  0  0  0  0  0  0  0  0  0
    3.9018    2.3608   -0.2520 O   0  0  0  0  0  0  0  0  0  0  0  0
    2.9881   -2.2016    3.2372 H   0  0  0  0  0  0  0  0  0  0  0  0
    1.3780   -2.2825    3.9671 H   0  0  0  0  0  0  0  0  0  0  0  0
    1.8263   -3.4268    2.6995 H   0  0  0  0  0  0  0  0  0  0  0  0
    1.4249   -0.4072    2.4436 H   0  0  0  0  0  0  0  0  0  0  0  0
   -0.7127   -0.9649    2.1292 H   0  0  0  0  0  0  0  0  0  0  0  0
   -0.3932   -2.6841    1.9823 H   0  0  0  0  0  0  0  0  0  0  0  0
   -0.1078   -2.6795   -0.2581 H   0  0  0  0  0  0  0  0  0  0  0  0
   -1.5146   -1.3268   -1.5522 H   0  0  0  0  0  0  0  0  0  0  0  0
   -2.6066   -2.9283   -0.0592 H   0  0  0  0  0  0  0  0  0  0  0  0
   -2.7314   -1.7295    1.2226 H   0  0  0  0  0  0  0  0  0  0  0  0
   -4.1353   -1.6479   -1.4869 H   0  0  0  0  0  0  0  0  0  0  0  0
   -4.8611   -1.9210    0.0856 H   0  0  0  0  0  0  0  0  0  0  0  0
   -5.9701    0.0034    0.9244 H   0  0  0  0  0  0  0  0  0  0  0  0
   -4.4005    4.0064    0.3316 H   0  0  0  0  0  0  0  0  0  0  0  0
   -2.5594    3.1413   -0.9903 H   0  0  0  0  0  0  0  0  0  0  0  0
   -2.6464    1.5959   -2.9661 H   0  0  0  0  0  0  0  0  0  0  0  0
   -2.9115   -0.1422   -2.8089 H   0  0  0  0  0  0  0  0  0  0  0  0
   -4.2703    0.9768   -2.7425 H   0  0  0  0  0  0  0  0  0  0  0  0
   -0.5066    2.2438   -0.6400 H   0  0  0  0  0  0  0  0  0  0  0  0
    0.4431    1.6014   -2.5912 H   0  0  0  0  0  0  0  0  0  0  0  0
    0.8465    0.9629    0.7780 H   0  0  0  0  0  0  0  0  0  0  0  0
    1.7047    1.1655   -0.7412 H   0  0  0  0  0  0  0  0  0  0  0  0
    0.6247   -1.0553   -2.5324 H   0  0  0  0  0  0  0  0  0  0  0  0
    1.6327   -2.3420   -1.9321 H   0  0  0  0  0  0  0  0  0  0  0  0
    2.3254   -0.7341   -2.1760 H   0  0  0  0  0  0  0  0  0  0  0  0
    3.1824   -2.7376   -0.3507 H   0  0  0  0  0  0  0  0  0  0  0  0
    3.8637   -0.0096    2.6057 H   0  0  0  0  0  0  0  0  0  0  0  0
    2.9288    1.1716    1.6742 H   0  0  0  0  0  0  0  0  0  0  0  0
    6.6045    3.2020    0.9884 H   0  0  0  0  0  0  0  0  0  0  0  0
    6.2104    3.3445   -0.7385 H   0  0  0  0  0  0  0  0  0  0  0  0
    6.9807    1.8600   -0.1467 H   0  0  0  0  0  0  0  0  0  0  0  0
  1  2  1  0
  2  3  1  0
  3  4  1  0
  4  5  1  0
  5  6  1  0
  6  7  1  0
  7  8  1  0
  8  9  2  0
  9 10  1  0
 10 11  2  0
 10 12  1  0
 12 13  2  0
 13 14  1  0
 14 15  1  0
 14 16  1  0
 16 17  1  0
 16 18  1  0
 18 19  1  0
 18 20  1  0
 20 21  1  0
 21 22  1  0
 21 23  1  0
 23 24  1  0
 23 25  1  0
 25 26  2  0
 25 27  1  0
 27 28  1  0
 28 29  1  0
 29 30  1  0
 29 31  2  0
 14  8  1  0
 16  5  1  0
 21  4  1  0
 23  2  1  0
  1 32  1  0
  1 33  1  0
  1 34  1  0
  2 35  1  0
  3 36  1  0
  3 37  1  0
  4 38  1  0
  5 39  1  0
  6 40  1  0
  6 41  1  0
  7 42  1  0
  7 43  1  0
  9 44  1  0
 12 45  1  0
 13 46  1  0
 15 47  1  0
 15 48  1  0
 15 49  1  0
 18 50  1  0
 19 51  1  0
 20 52  1  0
 20 53  1  0
 22 54  1  0
 22 55  1  0
 22 56  1  0
 24 57  1  0
 27 58  1  0
 27 59  1  0
 30 60  1  0
 30 61  1  0
 30 62  1  0
M  END
>  <Energy>  (2) 
145.6513384728125

>  <Real charge>  (2) 
0

>  <Mult>  (2) 
1

$$$$
