mol_1083 57
     RDKit          3D

 20 19  0  0  0  0  0  0  0  0999 V2000
   -1.5355    0.1448    1.1610 C   0  0  0  0  0  0  0  0  0  0  0  0
   -1.0525    0.5157   -0.1618 N   0  0  0  0  0  0  0  0  0  0  0  0
   -2.0551    1.0813   -1.0460 C   0  0  0  0  0  0  0  0  0  0  0  0
   -0.0330   -0.2144   -0.7667 C   0  0  0  0  0  0  0  0  0  0  0  0
   -0.0841   -0.5457   -1.9514 O   0  0  0  0  0  0  0  0  0  0  0  0
    1.0475   -0.5483    0.0453 N   0  0  0  0  0  0  0  0  0  0  0  0
    1.9887   -1.5123   -0.4949 C   0  0  0  0  0  0  0  0  0  0  0  0
    1.6260    0.4432    0.9414 C   0  0  0  0  0  0  0  0  0  0  0  0
   -2.3824   -0.5396    1.0444 H   0  0  0  0  0  0  0  0  0  0  0  0
   -0.7799   -0.3675    1.7599 H   0  0  0  0  0  0  0  0  0  0  0  0
   -1.8643    1.0475    1.6834 H   0  0  0  0  0  0  0  0  0  0  0  0
   -2.7697    0.3018   -1.3280 H   0  0  0  0  0  0  0  0  0  0  0  0
   -1.5842    1.4770   -1.9514 H   0  0  0  0  0  0  0  0  0  0  0  0
   -2.5736    1.8961   -0.5327 H   0  0  0  0  0  0  0  0  0  0  0  0
    2.5645   -1.9547    0.3229 H   0  0  0  0  0  0  0  0  0  0  0  0
    1.4560   -2.3090   -1.0236 H   0  0  0  0  0  0  0  0  0  0  0  0
    2.6610   -1.0077   -1.1958 H   0  0  0  0  0  0  0  0  0  0  0  0
    2.4454    0.9491    0.4201 H   0  0  0  0  0  0  0  0  0  0  0  0
    0.9094    1.2083    1.2465 H   0  0  0  0  0  0  0  0  0  0  0  0
    2.0156   -0.0656    1.8275 H   0  0  0  0  0  0  0  0  0  0  0  0
  1  2  1  0
  2  3  1  0
  2  4  1  0
  4  5  2  0
  4  6  1  0
  6  7  1  0
  6  8  1  0
  1  9  1  0
  1 10  1  0
  1 11  1  0
  3 12  1  0
  3 13  1  0
  3 14  1  0
  7 15  1  0
  7 16  1  0
  7 17  1  0
  8 18  1  0
  8 19  1  0
  8 20  1  0
M  END
>  <Energy>  (1) 
-59.90389728761177

>  <Real charge>  (1) 
0

>  <Mult>  (1) 
1

$$$$
