mol_55 21
     RDKit          3D

 22 23  0  0  0  0  0  0  0  0999 V2000
    3.7637    1.5238    2.2745 Cl  0  0  0  0  0  0  0  0  0  0  0  0
    2.8383    0.5956    1.1454 C   0  0  0  0  0  0  0  0  0  0  0  0
    3.5353   -0.3060    0.3362 C   0  0  0  0  0  0  0  0  0  0  0  0
    2.8523   -1.0848   -0.5943 C   0  0  0  0  0  0  0  0  0  0  0  0
    1.4686   -0.9652   -0.7196 C   0  0  0  0  0  0  0  0  0  0  0  0
    0.7425   -0.0642    0.0837 C   0  0  0  0  0  0  0  0  0  0  0  0
    1.4453    0.7220    1.0254 C   0  0  0  0  0  0  0  0  0  0  0  0
    0.5708    1.8419    2.0289 Cl  0  0  0  0  0  0  0  0  0  0  0  0
   -0.7266    0.0256   -0.0879 C   0  0  0  0  0  0  0  0  0  0  0  0
   -1.2959    0.9429   -1.0062 C   0  0  0  0  0  0  0  0  0  0  0  0
   -0.2584    1.9613   -1.9650 Cl  0  0  0  0  0  0  0  0  0  0  0  0
   -2.6898    1.0336   -1.1502 C   0  0  0  0  0  0  0  0  0  0  0  0
   -3.4443    2.1304   -2.2548 Cl  0  0  0  0  0  0  0  0  0  0  0  0
   -3.5300    0.2199   -0.3916 C   0  0  0  0  0  0  0  0  0  0  0  0
   -2.9896   -0.6918    0.5141 C   0  0  0  0  0  0  0  0  0  0  0  0
   -4.1042   -1.6670    1.4080 Cl  0  0  0  0  0  0  0  0  0  0  0  0
   -1.5980   -0.7954    0.6705 C   0  0  0  0  0  0  0  0  0  0  0  0
   -0.9370   -1.9433    1.8013 Cl  0  0  0  0  0  0  0  0  0  0  0  0
    4.6147   -0.4055    0.4276 H   0  0  0  0  0  0  0  0  0  0  0  0
    3.3979   -1.7857   -1.2226 H   0  0  0  0  0  0  0  0  0  0  0  0
    0.9539   -1.5839   -1.4538 H   0  0  0  0  0  0  0  0  0  0  0  0
   -4.6095    0.2958   -0.5074 H   0  0  0  0  0  0  0  0  0  0  0  0
  1  2  1  0
  2  3  2  0
  3  4  1  0
  4  5  2  0
  5  6  1  0
  6  7  2  0
  7  8  1  0
  6  9  1  0
  9 10  2  0
 10 11  1  0
 10 12  1  0
 12 13  1  0
 12 14  2  0
 14 15  1  0
 15 16  1  0
 15 17  2  0
 17 18  1  0
  7  2  1  0
 17  9  1  0
  3 19  1  0
  4 20  1  0
  5 21  1  0
 14 22  1  0
M  END
>  <Energy>  (1) 
59.9265356776573

>  <Real charge>  (1) 
0

>  <Mult>  (1) 
1

$$$$
