mol_864 234
     RDKit          3D

 27 28  0  0  0  0  0  0  0  0999 V2000
   -2.9172   -1.6007    0.3609 C   0  0  0  0  0  0  0  0  0  0  0  0
   -2.2047   -0.2796    0.0964 C   0  0  0  0  0  0  0  0  0  0  0  0
   -1.8966    0.3330    1.3407 O   0  0  0  0  0  0  0  0  0  0  0  0
   -0.5453    0.4975    1.4374 C   0  0  0  0  0  0  0  0  0  0  0  0
   -0.0671    1.0468    2.4185 O   0  0  0  0  0  0  0  0  0  0  0  0
    0.0970   -0.0040    0.3399 N   0  0  0  0  0  0  0  0  0  0  0  0
   -0.8399   -0.5174   -0.5199 C   0  0  0  0  0  0  0  0  0  0  0  0
   -0.6770   -1.0962   -1.5874 O   0  0  0  0  0  0  0  0  0  0  0  0
    1.5141   -0.0036    0.1250 C   0  0  0  0  0  0  0  0  0  0  0  0
    2.4178    0.3423    1.1456 C   0  0  0  0  0  0  0  0  0  0  0  0
    3.8016    0.3399    0.9281 C   0  0  0  0  0  0  0  0  0  0  0  0
    4.8668    0.7629    2.2135 Cl  0  0  0  0  0  0  0  0  0  0  0  0
    4.3282   -0.0033   -0.3079 C   0  0  0  0  0  0  0  0  0  0  0  0
    3.4548   -0.3459   -1.3288 C   0  0  0  0  0  0  0  0  0  0  0  0
    4.0840   -0.7684   -2.8751 Cl  0  0  0  0  0  0  0  0  0  0  0  0
    2.0698   -0.3479   -1.1203 C   0  0  0  0  0  0  0  0  0  0  0  0
   -3.0203    0.6377   -0.7849 C   0  0  0  0  0  0  0  0  0  0  0  0
   -3.4840    1.8540   -0.4616 C   0  0  0  0  0  0  0  0  0  0  0  0
   -3.1473   -2.1341   -0.5679 H   0  0  0  0  0  0  0  0  0  0  0  0
   -3.8521   -1.4385    0.9098 H   0  0  0  0  0  0  0  0  0  0  0  0
   -2.2998   -2.2607    0.9820 H   0  0  0  0  0  0  0  0  0  0  0  0
    2.0819    0.6067    2.1443 H   0  0  0  0  0  0  0  0  0  0  0  0
    5.4016   -0.0033   -0.4728 H   0  0  0  0  0  0  0  0  0  0  0  0
    1.4483   -0.6089   -1.9719 H   0  0  0  0  0  0  0  0  0  0  0  0
   -3.2396    0.2566   -1.7830 H   0  0  0  0  0  0  0  0  0  0  0  0
   -4.0629    2.4348   -1.1746 H   0  0  0  0  0  0  0  0  0  0  0  0
   -3.3121    2.3003    0.5142 H   0  0  0  0  0  0  0  0  0  0  0  0
  1  2  1  0
  2  3  1  0
  3  4  1  0
  4  5  2  0
  4  6  1  0
  6  7  1  0
  7  8  2  0
  6  9  1  0
  9 10  2  0
 10 11  1  0
 11 12  1  0
 11 13  2  0
 13 14  1  0
 14 15  1  0
 14 16  2  0
  2 17  1  0
 17 18  2  3
  7  2  1  0
 16  9  1  0
  1 19  1  0
  1 20  1  0
  1 21  1  0
 10 22  1  0
 13 23  1  0
 16 24  1  0
 17 25  1  0
 18 26  1  0
 18 27  1  0
M  END
>  <Energy>  (1) 
6.298016440980888

>  <Real charge>  (1) 
0

>  <Mult>  (1) 
1

$$$$
mol_864 184
     RDKit          3D

 27 28  0  0  0  0  0  0  0  0999 V2000
   -3.0856   -0.8463    0.7779 C   0  0  0  0  0  0  0  0  0  0  0  0
   -2.2090    0.1694    0.0545 C   0  0  0  0  0  0  0  0  0  0  0  0
   -1.9922   -0.2750   -1.2773 O   0  0  0  0  0  0  0  0  0  0  0  0
   -0.6616   -0.5165   -1.4591 C   0  0  0  0  0  0  0  0  0  0  0  0
   -0.2627   -0.9517   -2.5289 O   0  0  0  0  0  0  0  0  0  0  0  0
    0.0549   -0.2357   -0.3291 N   0  0  0  0  0  0  0  0  0  0  0  0
   -0.8123    0.1877    0.6454 C   0  0  0  0  0  0  0  0  0  0  0  0
   -0.5753    0.5390    1.7950 O   0  0  0  0  0  0  0  0  0  0  0  0
    1.4754   -0.3667   -0.1839 C   0  0  0  0  0  0  0  0  0  0  0  0
    2.3113   -0.6236   -1.2856 C   0  0  0  0  0  0  0  0  0  0  0  0
    3.6988   -0.7493   -1.1379 C   0  0  0  0  0  0  0  0  0  0  0  0
    4.6784   -1.0571   -2.5203 Cl  0  0  0  0  0  0  0  0  0  0  0  0
    4.2969   -0.6248    0.1067 C   0  0  0  0  0  0  0  0  0  0  0  0
    3.4919   -0.3711    1.2065 C   0  0  0  0  0  0  0  0  0  0  0  0
    4.2103   -0.2178    2.7641 Cl  0  0  0  0  0  0  0  0  0  0  0  0
    2.1039   -0.2423    1.0682 C   0  0  0  0  0  0  0  0  0  0  0  0
   -2.8081    1.5563    0.0797 C   0  0  0  0  0  0  0  0  0  0  0  0
   -3.1813    2.2866   -0.9817 C   0  0  0  0  0  0  0  0  0  0  0  0
   -2.6248   -1.8412    0.7652 H   0  0  0  0  0  0  0  0  0  0  0  0
   -3.2532   -0.5686    1.8244 H   0  0  0  0  0  0  0  0  0  0  0  0
   -4.0591   -0.9459    0.2840 H   0  0  0  0  0  0  0  0  0  0  0  0
    1.9193   -0.7168   -2.2944 H   0  0  0  0  0  0  0  0  0  0  0  0
    5.3728   -0.7234    0.2175 H   0  0  0  0  0  0  0  0  0  0  0  0
    1.5393   -0.0581    1.9773 H   0  0  0  0  0  0  0  0  0  0  0  0
   -2.9369    1.9936    1.0705 H   0  0  0  0  0  0  0  0  0  0  0  0
   -3.0891    1.9193   -2.0001 H   0  0  0  0  0  0  0  0  0  0  0  0
   -3.6019    3.2799   -0.8514 H   0  0  0  0  0  0  0  0  0  0  0  0
  1  2  1  0
  2  3  1  0
  3  4  1  0
  4  5  2  0
  4  6  1  0
  6  7  1  0
  7  8  2  0
  6  9  1  0
  9 10  2  0
 10 11  1  0
 11 12  1  0
 11 13  2  0
 13 14  1  0
 14 15  1  0
 14 16  2  0
  2 17  1  0
 17 18  2  3
  7  2  1  0
 16  9  1  0
  1 19  1  0
  1 20  1  0
  1 21  1  0
 10 22  1  0
 13 23  1  0
 16 24  1  0
 17 25  1  0
 18 26  1  0
 18 27  1  0
M  END
>  <Energy>  (2) 
6.329043190443656

>  <Real charge>  (2) 
0

>  <Mult>  (2) 
1

$$$$
