mol_356 1
     RDKit          3D

 15 15  0  0  0  0  0  0  0  0999 V2000
    2.9385   -0.3816   -1.3483 Cl  0  0  0  0  0  0  0  0  0  0  0  0
    2.1648   -0.3681    0.2486 C   0  0  0  0  0  0  0  0  0  0  0  0
    0.6883   -0.1199    0.1196 C   0  0  0  0  0  0  0  0  0  0  0  0
    0.1819    1.1881    0.1276 C   0  0  0  0  0  0  0  0  0  0  0  0
   -1.1888    1.4180   -0.0024 C   0  0  0  0  0  0  0  0  0  0  0  0
   -2.0659    0.3450   -0.1482 C   0  0  0  0  0  0  0  0  0  0  0  0
   -1.5738   -0.9585   -0.1688 C   0  0  0  0  0  0  0  0  0  0  0  0
   -0.2035   -1.1908   -0.0389 C   0  0  0  0  0  0  0  0  0  0  0  0
    2.3597   -1.3301    0.7339 H   0  0  0  0  0  0  0  0  0  0  0  0
    2.6413    0.4087    0.8556 H   0  0  0  0  0  0  0  0  0  0  0  0
    0.8540    2.0376    0.2295 H   0  0  0  0  0  0  0  0  0  0  0  0
   -1.5719    2.4352    0.0044 H   0  0  0  0  0  0  0  0  0  0  0  0
   -3.1326    0.5251   -0.2529 H   0  0  0  0  0  0  0  0  0  0  0  0
   -2.2571   -1.7948   -0.2917 H   0  0  0  0  0  0  0  0  0  0  0  0
    0.1653   -2.2140   -0.0681 H   0  0  0  0  0  0  0  0  0  0  0  0
  1  2  1  0
  2  3  1  0
  3  4  2  0
  4  5  1  0
  5  6  2  0
  6  7  1  0
  7  8  2  0
  8  3  1  0
  2  9  1  0
  2 10  1  0
  4 11  1  0
  5 12  1  0
  6 13  1  0
  7 14  1  0
  8 15  1  0
M  END
>  <Energy>  (1) 
26.15243122455253

>  <Real charge>  (1) 
0

>  <Mult>  (1) 
1

$$$$
