mol_423 35
     RDKit          3D

 27 28  0  0  0  0  0  0  0  0999 V2000
    3.9275    0.3042   -3.2483 Cl  0  0  0  0  0  0  0  0  0  0  0  0
    3.5228    0.3901   -1.4898 C   0  0  0  0  0  0  0  0  0  0  0  0
    5.0163    0.9209   -0.6330 Cl  0  0  0  0  0  0  0  0  0  0  0  0
    2.9157   -0.9304   -0.9309 C   0  0  0  0  0  0  0  0  0  0  0  0
    1.4177   -1.3959   -1.8434 Cl  0  0  0  0  0  0  0  0  0  0  0  0
    4.0730   -2.3228   -1.1502 Cl  0  0  0  0  0  0  0  0  0  0  0  0
    2.5607   -0.8649    0.8988 S   0  0  0  0  0  0  0  0  0  0  0  0
    0.9269   -0.4373    0.9841 N   0  0  0  0  0  0  0  0  0  0  0  0
    0.4392    0.7959    0.6325 C   0  0  0  0  0  0  0  0  0  0  0  0
    1.0482    1.6912    0.0658 O   0  0  0  0  0  0  0  0  0  0  0  0
   -0.9759    0.8805    1.1515 C   0  0  0  0  0  0  0  0  0  0  0  0
   -1.8908    1.7675    0.3199 C   0  0  0  0  0  0  0  0  0  0  0  0
   -2.5534    1.0647   -0.8194 C   0  0  0  0  0  0  0  0  0  0  0  0
   -2.6156   -0.2660   -0.9348 C   0  0  0  0  0  0  0  0  0  0  0  0
   -2.0421   -1.2254    0.0577 C   0  0  0  0  0  0  0  0  0  0  0  0
   -1.3806   -0.5892    1.2881 C   0  0  0  0  0  0  0  0  0  0  0  0
   -0.0440   -1.2603    1.5048 C   0  0  0  0  0  0  0  0  0  0  0  0
    0.0898   -2.3670    2.0059 O   0  0  0  0  0  0  0  0  0  0  0  0
    2.8176    1.2162   -1.4076 H   0  0  0  0  0  0  0  0  0  0  0  0
   -0.8824    1.3254    2.1532 H   0  0  0  0  0  0  0  0  0  0  0  0
   -1.3394    2.6307   -0.0704 H   0  0  0  0  0  0  0  0  0  0  0  0
   -2.6838    2.1690    0.9632 H   0  0  0  0  0  0  0  0  0  0  0  0
   -3.0202    1.6877   -1.5807 H   0  0  0  0  0  0  0  0  0  0  0  0
   -3.1227   -0.6989   -1.7961 H   0  0  0  0  0  0  0  0  0  0  0  0
   -2.8518   -1.8806    0.4043 H   0  0  0  0  0  0  0  0  0  0  0  0
   -1.3454   -1.8829   -0.4766 H   0  0  0  0  0  0  0  0  0  0  0  0
   -2.0072   -0.7226    2.1773 H   0  0  0  0  0  0  0  0  0  0  0  0
  1  2  1  0
  2  3  1  0
  2  4  1  0
  4  5  1  0
  4  6  1  0
  4  7  1  0
  7  8  1  0
  8  9  1  0
  9 10  2  0
  9 11  1  0
 11 12  1  0
 12 13  1  0
 13 14  2  0
 14 15  1  0
 15 16  1  0
 16 17  1  0
 17 18  2  0
 16 11  1  0
 17  8  1  0
  2 19  1  0
 11 20  1  0
 12 21  1  0
 12 22  1  0
 13 23  1  0
 14 24  1  0
 15 25  1  0
 15 26  1  0
 16 27  1  0
M  END
>  <Energy>  (1) 
36.48030410626686

>  <Real charge>  (1) 
0

>  <Mult>  (1) 
1

$$$$
mol_423 75
     RDKit          3D

 27 28  0  0  0  0  0  0  0  0999 V2000
    5.7148    0.2276   -0.1354 Cl  0  0  0  0  0  0  0  0  0  0  0  0
    4.1888    0.2447    0.8304 C   0  0  0  0  0  0  0  0  0  0  0  0
    4.6663    0.2272    2.5674 Cl  0  0  0  0  0  0  0  0  0  0  0  0
    3.2334    1.4153    0.4541 C   0  0  0  0  0  0  0  0  0  0  0  0
    2.8047    1.3630   -1.3113 Cl  0  0  0  0  0  0  0  0  0  0  0  0
    4.0401    3.0277    0.7148 Cl  0  0  0  0  0  0  0  0  0  0  0  0
    1.6835    1.4547    1.4907 S   0  0  0  0  0  0  0  0  0  0  0  0
    0.5453    0.6433    0.5407 N   0  0  0  0  0  0  0  0  0  0  0  0
    0.5772   -0.7052    0.2897 C   0  0  0  0  0  0  0  0  0  0  0  0
    1.4763   -1.4878    0.5609 O   0  0  0  0  0  0  0  0  0  0  0  0
   -0.7347   -1.0873   -0.3473 C   0  0  0  0  0  0  0  0  0  0  0  0
   -1.6509   -1.6408    0.7516 C   0  0  0  0  0  0  0  0  0  0  0  0
   -3.0847   -1.2374    0.6384 C   0  0  0  0  0  0  0  0  0  0  0  0
   -3.5380   -0.3182   -0.2207 C   0  0  0  0  0  0  0  0  0  0  0  0
   -2.6692    0.4323   -1.1786 C   0  0  0  0  0  0  0  0  0  0  0  0
   -1.1739    0.2441   -0.9607 C   0  0  0  0  0  0  0  0  0  0  0  0
   -0.5348    1.2649   -0.0458 C   0  0  0  0  0  0  0  0  0  0  0  0
   -0.8807    2.4312    0.0596 O   0  0  0  0  0  0  0  0  0  0  0  0
    3.7241   -0.7215    0.6352 H   0  0  0  0  0  0  0  0  0  0  0  0
   -0.5704   -1.8297   -1.1359 H   0  0  0  0  0  0  0  0  0  0  0  0
   -1.5943   -2.7365    0.7257 H   0  0  0  0  0  0  0  0  0  0  0  0
   -1.3009   -1.3510    1.7511 H   0  0  0  0  0  0  0  0  0  0  0  0
   -3.7890   -1.7292    1.3077 H   0  0  0  0  0  0  0  0  0  0  0  0
   -4.6026   -0.0902   -0.2425 H   0  0  0  0  0  0  0  0  0  0  0  0
   -2.9254    0.0829   -2.1869 H   0  0  0  0  0  0  0  0  0  0  0  0
   -2.9370    1.4943   -1.1410 H   0  0  0  0  0  0  0  0  0  0  0  0
   -0.6678    0.3817   -1.9281 H   0  0  0  0  0  0  0  0  0  0  0  0
  1  2  1  0
  2  3  1  0
  2  4  1  0
  4  5  1  0
  4  6  1  0
  4  7  1  0
  7  8  1  0
  8  9  1  0
  9 10  2  0
  9 11  1  0
 11 12  1  0
 12 13  1  0
 13 14  2  0
 14 15  1  0
 15 16  1  0
 16 17  1  0
 17 18  2  0
 16 11  1  0
 17  8  1  0
  2 19  1  0
 11 20  1  0
 12 21  1  0
 12 22  1  0
 13 23  1  0
 14 24  1  0
 15 25  1  0
 15 26  1  0
 16 27  1  0
M  END
>  <Energy>  (2) 
36.89356426152529

>  <Real charge>  (2) 
0

>  <Mult>  (2) 
1

$$$$
mol_423 204
     RDKit          3D

 27 28  0  0  0  0  0  0  0  0999 V2000
    5.3148    1.5912    0.3500 Cl  0  0  0  0  0  0  0  0  0  0  0  0
    3.9276    0.6167    0.9729 C   0  0  0  0  0  0  0  0  0  0  0  0
    4.3929    0.0277    2.6105 Cl  0  0  0  0  0  0  0  0  0  0  0  0
    3.4838   -0.5162    0.0010 C   0  0  0  0  0  0  0  0  0  0  0  0
    3.0412    0.1588   -1.6271 Cl  0  0  0  0  0  0  0  0  0  0  0  0
    4.8475   -1.6841   -0.3075 Cl  0  0  0  0  0  0  0  0  0  0  0  0
    2.0819   -1.5450    0.6726 S   0  0  0  0  0  0  0  0  0  0  0  0
    0.7026   -0.8483   -0.0134 N   0  0  0  0  0  0  0  0  0  0  0  0
    0.2529    0.4174    0.2734 C   0  0  0  0  0  0  0  0  0  0  0  0
    0.7502    1.2142    1.0552 O   0  0  0  0  0  0  0  0  0  0  0  0
   -0.8847    0.7066   -0.6765 C   0  0  0  0  0  0  0  0  0  0  0  0
   -1.9298    1.6729   -0.1369 C   0  0  0  0  0  0  0  0  0  0  0  0
   -3.0645    1.0210    0.5848 C   0  0  0  0  0  0  0  0  0  0  0  0
   -3.2884   -0.2974    0.5882 C   0  0  0  0  0  0  0  0  0  0  0  0
   -2.4389   -1.2939   -0.1317 C   0  0  0  0  0  0  0  0  0  0  0  0
   -1.3725   -0.6923   -1.0572 C   0  0  0  0  0  0  0  0  0  0  0  0
   -0.1120   -1.5096   -0.9033 C   0  0  0  0  0  0  0  0  0  0  0  0
    0.0734   -2.5903   -1.4423 O   0  0  0  0  0  0  0  0  0  0  0  0
    3.1263    1.3391    1.1276 H   0  0  0  0  0  0  0  0  0  0  0  0
   -0.4066    1.1727   -1.5511 H   0  0  0  0  0  0  0  0  0  0  0  0
   -1.4674    2.4125    0.5267 H   0  0  0  0  0  0  0  0  0  0  0  0
   -2.3602    2.2338   -0.9762 H   0  0  0  0  0  0  0  0  0  0  0  0
   -3.7435    1.6766    1.1280 H   0  0  0  0  0  0  0  0  0  0  0  0
   -4.1381   -0.6888    1.1458 H   0  0  0  0  0  0  0  0  0  0  0  0
   -3.0931   -1.9366   -0.7346 H   0  0  0  0  0  0  0  0  0  0  0  0
   -1.9905   -1.9543    0.6222 H   0  0  0  0  0  0  0  0  0  0  0  0
   -1.7046   -0.7045   -2.1011 H   0  0  0  0  0  0  0  0  0  0  0  0
  1  2  1  0
  2  3  1  0
  2  4  1  0
  4  5  1  0
  4  6  1  0
  4  7  1  0
  7  8  1  0
  8  9  1  0
  9 10  2  0
  9 11  1  0
 11 12  1  0
 12 13  1  0
 13 14  2  0
 14 15  1  0
 15 16  1  0
 16 17  1  0
 17 18  2  0
 16 11  1  0
 17  8  1  0
  2 19  1  0
 11 20  1  0
 12 21  1  0
 12 22  1  0
 13 23  1  0
 14 24  1  0
 15 25  1  0
 15 26  1  0
 16 27  1  0
M  END
>  <Energy>  (3) 
37.05323054817868

>  <Real charge>  (3) 
0

>  <Mult>  (3) 
1

$$$$
mol_423 37
     RDKit          3D

 27 28  0  0  0  0  0  0  0  0999 V2000
    5.5902    0.5843    0.2695 Cl  0  0  0  0  0  0  0  0  0  0  0  0
    4.4965   -0.8288    0.0471 C   0  0  0  0  0  0  0  0  0  0  0  0
    4.9015   -1.5779   -1.5391 Cl  0  0  0  0  0  0  0  0  0  0  0  0
    2.9866   -0.4894    0.2140 C   0  0  0  0  0  0  0  0  0  0  0  0
    2.0105   -2.0139    0.1029 Cl  0  0  0  0  0  0  0  0  0  0  0  0
    2.6932    0.1398    1.8902 Cl  0  0  0  0  0  0  0  0  0  0  0  0
    2.3874    0.7485   -1.0225 S   0  0  0  0  0  0  0  0  0  0  0  0
    0.7219    0.7908   -0.7205 N   0  0  0  0  0  0  0  0  0  0  0  0
    0.1244    1.6801    0.1413 C   0  0  0  0  0  0  0  0  0  0  0  0
    0.6416    2.5832    0.7812 O   0  0  0  0  0  0  0  0  0  0  0  0
   -1.3357    1.3109    0.2253 C   0  0  0  0  0  0  0  0  0  0  0  0
   -1.5260    0.3947    1.4415 C   0  0  0  0  0  0  0  0  0  0  0  0
   -2.4542   -0.7566    1.2289 C   0  0  0  0  0  0  0  0  0  0  0  0
   -2.9755   -1.0901    0.0433 C   0  0  0  0  0  0  0  0  0  0  0  0
   -2.6932   -0.3572   -1.2287 C   0  0  0  0  0  0  0  0  0  0  0  0
   -1.5589    0.6543   -1.1376 C   0  0  0  0  0  0  0  0  0  0  0  0
   -0.1955    0.0964   -1.4766 C   0  0  0  0  0  0  0  0  0  0  0  0
    0.0237   -0.7405   -2.3399 O   0  0  0  0  0  0  0  0  0  0  0  0
    4.8012   -1.5588    0.8044 H   0  0  0  0  0  0  0  0  0  0  0  0
   -1.9495    2.2142    0.3132 H   0  0  0  0  0  0  0  0  0  0  0  0
   -0.5693   -0.0115    1.7936 H   0  0  0  0  0  0  0  0  0  0  0  0
   -1.9104    1.0016    2.2711 H   0  0  0  0  0  0  0  0  0  0  0  0
   -2.7094   -1.3504    2.1052 H   0  0  0  0  0  0  0  0  0  0  0  0
   -3.6537   -1.9395   -0.0195 H   0  0  0  0  0  0  0  0  0  0  0  0
   -3.6146    0.1681   -1.5104 H   0  0  0  0  0  0  0  0  0  0  0  0
   -2.4978   -1.0887   -2.0212 H   0  0  0  0  0  0  0  0  0  0  0  0
   -1.7351    1.4366   -1.8909 H   0  0  0  0  0  0  0  0  0  0  0  0
  1  2  1  0
  2  3  1  0
  2  4  1  0
  4  5  1  0
  4  6  1  0
  4  7  1  0
  7  8  1  0
  8  9  1  0
  9 10  2  0
  9 11  1  0
 11 12  1  0
 12 13  1  0
 13 14  2  0
 14 15  1  0
 15 16  1  0
 16 17  1  0
 17 18  2  0
 16 11  1  0
 17  8  1  0
  2 19  1  0
 11 20  1  0
 12 21  1  0
 12 22  1  0
 13 23  1  0
 14 24  1  0
 15 25  1  0
 15 26  1  0
 16 27  1  0
M  END
>  <Energy>  (4) 
37.12534467881005

>  <Real charge>  (4) 
0

>  <Mult>  (4) 
1

$$$$
mol_423 114
     RDKit          3D

 27 28  0  0  0  0  0  0  0  0999 V2000
    5.1813    0.2687   -0.1551 Cl  0  0  0  0  0  0  0  0  0  0  0  0
    3.8212   -0.5032    0.7367 C   0  0  0  0  0  0  0  0  0  0  0  0
    4.5444   -1.7439    1.8321 Cl  0  0  0  0  0  0  0  0  0  0  0  0
    2.8985    0.5100    1.4754 C   0  0  0  0  0  0  0  0  0  0  0  0
    1.5551   -0.3506    2.3398 Cl  0  0  0  0  0  0  0  0  0  0  0  0
    3.8178    1.4127    2.7618 Cl  0  0  0  0  0  0  0  0  0  0  0  0
    2.1905    1.8138    0.3509 S   0  0  0  0  0  0  0  0  0  0  0  0
    0.7323    1.1398   -0.1806 N   0  0  0  0  0  0  0  0  0  0  0  0
    0.6441    0.1029   -1.0733 C   0  0  0  0  0  0  0  0  0  0  0  0
    1.5700   -0.5020   -1.5956 O   0  0  0  0  0  0  0  0  0  0  0  0
   -0.8117   -0.2675   -1.2255 C   0  0  0  0  0  0  0  0  0  0  0  0
   -1.0721   -1.5365   -0.4027 C   0  0  0  0  0  0  0  0  0  0  0  0
   -2.2898   -1.5080    0.4615 C   0  0  0  0  0  0  0  0  0  0  0  0
   -3.1043   -0.4543    0.5792 C   0  0  0  0  0  0  0  0  0  0  0  0
   -2.8977    0.8403   -0.1364 C   0  0  0  0  0  0  0  0  0  0  0  0
   -1.5134    1.0056   -0.7474 C   0  0  0  0  0  0  0  0  0  0  0  0
   -0.4990    1.6388    0.1774 C   0  0  0  0  0  0  0  0  0  0  0  0
   -0.7474    2.4941    1.0134 O   0  0  0  0  0  0  0  0  0  0  0  0
    3.2590   -1.0784    0.0009 H   0  0  0  0  0  0  0  0  0  0  0  0
   -1.0354   -0.4415   -2.2842 H   0  0  0  0  0  0  0  0  0  0  0  0
   -0.2154   -1.7824    0.2365 H   0  0  0  0  0  0  0  0  0  0  0  0
   -1.1677   -2.3811   -1.0973 H   0  0  0  0  0  0  0  0  0  0  0  0
   -2.5172   -2.4153    1.0195 H   0  0  0  0  0  0  0  0  0  0  0  0
   -3.9814   -0.5281    1.2202 H   0  0  0  0  0  0  0  0  0  0  0  0
   -3.6492    0.8949   -0.9342 H   0  0  0  0  0  0  0  0  0  0  0  0
   -3.1171    1.6635    0.5532 H   0  0  0  0  0  0  0  0  0  0  0  0
   -1.5953    1.7076   -1.5908 H   0  0  0  0  0  0  0  0  0  0  0  0
  1  2  1  0
  2  3  1  0
  2  4  1  0
  4  5  1  0
  4  6  1  0
  4  7  1  0
  7  8  1  0
  8  9  1  0
  9 10  2  0
  9 11  1  0
 11 12  1  0
 12 13  1  0
 13 14  2  0
 14 15  1  0
 15 16  1  0
 16 17  1  0
 17 18  2  0
 16 11  1  0
 17  8  1  0
  2 19  1  0
 11 20  1  0
 12 21  1  0
 12 22  1  0
 13 23  1  0
 14 24  1  0
 15 25  1  0
 15 26  1  0
 16 27  1  0
M  END
>  <Energy>  (5) 
37.40020961657551

>  <Real charge>  (5) 
0

>  <Mult>  (5) 
1

$$$$
mol_423 164
     RDKit          3D

 27 28  0  0  0  0  0  0  0  0999 V2000
    5.0756    0.7795    2.4779 Cl  0  0  0  0  0  0  0  0  0  0  0  0
    4.4764    0.0287    0.9512 C   0  0  0  0  0  0  0  0  0  0  0  0
    5.5554    0.6055   -0.3718 Cl  0  0  0  0  0  0  0  0  0  0  0  0
    2.9616    0.2769    0.6859 C   0  0  0  0  0  0  0  0  0  0  0  0
    2.5868    2.0335    0.5360 Cl  0  0  0  0  0  0  0  0  0  0  0  0
    1.9877   -0.3568    2.0773 Cl  0  0  0  0  0  0  0  0  0  0  0  0
    2.4355   -0.6063   -0.8619 S   0  0  0  0  0  0  0  0  0  0  0  0
    0.7550   -0.3968   -0.8467 N   0  0  0  0  0  0  0  0  0  0  0  0
   -0.1164   -1.3740   -0.4212 C   0  0  0  0  0  0  0  0  0  0  0  0
    0.1570   -2.4336    0.1236 O   0  0  0  0  0  0  0  0  0  0  0  0
   -1.4983   -0.9622   -0.8751 C   0  0  0  0  0  0  0  0  0  0  0  0
   -2.6216   -1.4037    0.0527 C   0  0  0  0  0  0  0  0  0  0  0  0
   -2.9667   -0.4176    1.1217 C   0  0  0  0  0  0  0  0  0  0  0  0
   -2.5135    0.8403    1.1517 C   0  0  0  0  0  0  0  0  0  0  0  0
   -1.6082    1.4298    0.1196 C   0  0  0  0  0  0  0  0  0  0  0  0
   -1.3533    0.5428   -1.1065 C   0  0  0  0  0  0  0  0  0  0  0  0
    0.1083    0.6475   -1.4643 C   0  0  0  0  0  0  0  0  0  0  0  0
    0.5867    1.5410   -2.1462 O   0  0  0  0  0  0  0  0  0  0  0  0
    4.6719   -1.0438    1.0554 H   0  0  0  0  0  0  0  0  0  0  0  0
   -1.6349   -1.4649   -1.8441 H   0  0  0  0  0  0  0  0  0  0  0  0
   -2.3808   -2.3639    0.5231 H   0  0  0  0  0  0  0  0  0  0  0  0
   -3.5292   -1.5673   -0.5420 H   0  0  0  0  0  0  0  0  0  0  0  0
   -3.6337   -0.7613    1.9108 H   0  0  0  0  0  0  0  0  0  0  0  0
   -2.8112    1.4908    1.9728 H   0  0  0  0  0  0  0  0  0  0  0  0
   -2.0457    2.3751   -0.2261 H   0  0  0  0  0  0  0  0  0  0  0  0
   -0.6709    1.7056    0.6193 H   0  0  0  0  0  0  0  0  0  0  0  0
   -1.9734    0.8551   -1.9540 H   0  0  0  0  0  0  0  0  0  0  0  0
  1  2  1  0
  2  3  1  0
  2  4  1  0
  4  5  1  0
  4  6  1  0
  4  7  1  0
  7  8  1  0
  8  9  1  0
  9 10  2  0
  9 11  1  0
 11 12  1  0
 12 13  1  0
 13 14  2  0
 14 15  1  0
 15 16  1  0
 16 17  1  0
 17 18  2  0
 16 11  1  0
 17  8  1  0
  2 19  1  0
 11 20  1  0
 12 21  1  0
 12 22  1  0
 13 23  1  0
 14 24  1  0
 15 25  1  0
 15 26  1  0
 16 27  1  0
M  END
>  <Energy>  (6) 
37.42827485589599

>  <Real charge>  (6) 
0

>  <Mult>  (6) 
1

$$$$
