mol_468 15
     RDKit          3D

 14 15  0  0  0  0  0  0  0  0999 V2000
   -1.7917    0.5798    0.0649 C   0  0  0  0  0  0  0  0  0  0  0  0
   -1.5963   -0.8050    0.0426 C   0  0  0  0  0  0  0  0  0  0  0  0
   -0.3117   -1.3606   -0.0056 C   0  0  0  0  0  0  0  0  0  0  0  0
    0.7523   -0.4576   -0.0297 C   0  0  0  0  0  0  0  0  0  0  0  0
    2.1096   -0.6056   -0.0756 N   0  0  0  0  0  0  0  0  0  0  0  0
    2.7453    0.5776   -0.0825 N   0  0  0  0  0  0  0  0  0  0  0  0
    1.8178    1.5268   -0.0414 N   0  0  0  0  0  0  0  0  0  0  0  0
    0.5899    0.9211   -0.0085 C   0  0  0  0  0  0  0  0  0  0  0  0
   -0.7023    1.4611    0.0397 C   0  0  0  0  0  0  0  0  0  0  0  0
   -2.8024    0.9807    0.1024 H   0  0  0  0  0  0  0  0  0  0  0  0
   -2.4619   -1.4650    0.0631 H   0  0  0  0  0  0  0  0  0  0  0  0
   -0.1610   -2.4344   -0.0229 H   0  0  0  0  0  0  0  0  0  0  0  0
    2.6600   -1.4545   -0.1033 H   0  0  0  0  0  0  0  0  0  0  0  0
   -0.8476    2.5356    0.0569 H   0  0  0  0  0  0  0  0  0  0  0  0
  1  2  2  0
  2  3  1  0
  3  4  2  0
  4  5  1  0
  5  6  1  0
  6  7  2  0
  7  8  1  0
  8  9  2  0
  8  4  1  0
  9  1  1  0
  1 10  1  0
  2 11  1  0
  3 12  1  0
  5 13  1  0
  9 14  1  0
M  END
>  <Energy>  (1) 
19.450467185306824

>  <Real charge>  (1) 
0

>  <Mult>  (1) 
1

$$$$
