mol_315 20
     RDKit          3D

 18 17  0  0  0  0  0  0  0  0999 V2000
    1.9242    0.9314    0.0642 C   0  0  0  0  0  0  0  0  0  0  0  0
    0.5977    1.0703   -0.4210 O   0  0  0  0  0  0  0  0  0  0  0  0
   -0.3239    0.0150   -0.1078 C   0  0  0  0  0  0  0  0  0  0  0  0
   -0.5324   -0.1205    1.4053 C   0  0  0  0  0  0  0  0  0  0  0  0
    0.1190   -1.3197   -0.7190 C   0  0  0  0  0  0  0  0  0  0  0  0
   -1.6511    0.4382   -0.7537 C   0  0  0  0  0  0  0  0  0  0  0  0
    2.4916    1.8096   -0.2575 H   0  0  0  0  0  0  0  0  0  0  0  0
    1.9484    0.9015    1.1562 H   0  0  0  0  0  0  0  0  0  0  0  0
    2.4119    0.0482   -0.3553 H   0  0  0  0  0  0  0  0  0  0  0  0
   -1.3555   -0.8055    1.6359 H   0  0  0  0  0  0  0  0  0  0  0  0
    0.3640   -0.5068    1.9019 H   0  0  0  0  0  0  0  0  0  0  0  0
   -0.7514    0.8532    1.8575 H   0  0  0  0  0  0  0  0  0  0  0  0
    0.3641   -1.2004   -1.7803 H   0  0  0  0  0  0  0  0  0  0  0  0
    1.0170   -1.7089   -0.2275 H   0  0  0  0  0  0  0  0  0  0  0  0
   -0.6622   -2.0817   -0.6248 H   0  0  0  0  0  0  0  0  0  0  0  0
   -1.5330    0.5705   -1.8355 H   0  0  0  0  0  0  0  0  0  0  0  0
   -2.4423   -0.2988   -0.5803 H   0  0  0  0  0  0  0  0  0  0  0  0
   -1.9859    1.4044   -0.3584 H   0  0  0  0  0  0  0  0  0  0  0  0
  1  2  1  0
  2  3  1  0
  3  4  1  0
  3  5  1  0
  3  6  1  0
  1  7  1  0
  1  8  1  0
  1  9  1  0
  4 10  1  0
  4 11  1  0
  4 12  1  0
  5 13  1  0
  5 14  1  0
  5 15  1  0
  6 16  1  0
  6 17  1  0
  6 18  1  0
M  END
>  <Energy>  (1) 
16.978044653898937

>  <Real charge>  (1) 
0

>  <Mult>  (1) 
1

$$$$
