mol_45 87
     RDKit          3D

 14 13  0  0  0  0  0  0  0  0999 V2000
   -0.6151    0.3537    1.5408 C   0  0  0  0  0  0  0  0  0  0  0  0
   -0.0759    0.2959    0.1166 C   0  0  0  0  0  0  0  0  0  0  0  0
   -1.0973   -0.3375   -0.8215 C   0  0  0  0  0  0  0  0  0  0  0  0
    1.1174   -0.5094    0.1458 O   0  0  0  0  0  0  0  0  0  0  0  0
    2.0134   -0.2776   -0.8451 C   0  0  0  0  0  0  0  0  0  0  0  0
    1.9119    0.5343   -1.7500 O   0  0  0  0  0  0  0  0  0  0  0  0
    0.1314    0.7911    2.2127 H   0  0  0  0  0  0  0  0  0  0  0  0
   -0.8303   -0.6509    1.9217 H   0  0  0  0  0  0  0  0  0  0  0  0
   -1.5283    0.9539    1.5968 H   0  0  0  0  0  0  0  0  0  0  0  0
    0.1585    1.3174   -0.2074 H   0  0  0  0  0  0  0  0  0  0  0  0
   -2.0342    0.2279   -0.8267 H   0  0  0  0  0  0  0  0  0  0  0  0
   -0.7140   -0.3772   -1.8463 H   0  0  0  0  0  0  0  0  0  0  0  0
   -1.3116   -1.3707   -0.5267 H   0  0  0  0  0  0  0  0  0  0  0  0
    2.8741   -0.9509   -0.7107 H   0  0  0  0  0  0  0  0  0  0  0  0
  1  2  1  0
  2  3  1  0
  2  4  1  0
  4  5  1  0
  5  6  2  0
  1  7  1  0
  1  8  1  0
  1  9  1  0
  2 10  1  0
  3 11  1  0
  3 12  1  0
  3 13  1  0
  5 14  1  0
M  END
>  <Energy>  (1) 
-7.532273164979649

>  <Real charge>  (1) 
0

>  <Mult>  (1) 
1

$$$$
