mol_144 82
     RDKit          3D

 20 21  0  0  0  0  0  0  0  0999 V2000
   -2.2885    1.5474    0.0116 N   0  0  0  0  0  0  0  0  0  0  0  0
   -1.5008    0.3780    0.0980 C   0  0  0  0  0  0  0  0  0  0  0  0
   -2.1638   -0.8576    0.0956 C   0  0  0  0  0  0  0  0  0  0  0  0
   -1.4510   -2.0527    0.1007 C   0  0  0  0  0  0  0  0  0  0  0  0
   -0.0602   -2.0288    0.0650 C   0  0  0  0  0  0  0  0  0  0  0  0
    0.6347   -0.8131   -0.0060 C   0  0  0  0  0  0  0  0  0  0  0  0
    2.0379   -0.8089   -0.0830 C   0  0  0  0  0  0  0  0  0  0  0  0
    2.7481    0.3858   -0.1852 C   0  0  0  0  0  0  0  0  0  0  0  0
    2.0633    1.5929   -0.2176 C   0  0  0  0  0  0  0  0  0  0  0  0
    0.6683    1.6054   -0.1359 C   0  0  0  0  0  0  0  0  0  0  0  0
   -0.0820    0.4117   -0.0156 C   0  0  0  0  0  0  0  0  0  0  0  0
   -1.8345    2.3621    0.4090 H   0  0  0  0  0  0  0  0  0  0  0  0
   -3.2243    1.4260    0.3858 H   0  0  0  0  0  0  0  0  0  0  0  0
   -3.2500   -0.8953    0.0996 H   0  0  0  0  0  0  0  0  0  0  0  0
   -1.9795   -3.0017    0.1225 H   0  0  0  0  0  0  0  0  0  0  0  0
    0.4798   -2.9731    0.0680 H   0  0  0  0  0  0  0  0  0  0  0  0
    2.5915   -1.7454   -0.0724 H   0  0  0  0  0  0  0  0  0  0  0  0
    3.8326    0.3709   -0.2491 H   0  0  0  0  0  0  0  0  0  0  0  0
    2.6095    2.5278   -0.3104 H   0  0  0  0  0  0  0  0  0  0  0  0
    0.1687    2.5688   -0.1807 H   0  0  0  0  0  0  0  0  0  0  0  0
  1  2  1  0
  2  3  2  0
  3  4  1  0
  4  5  2  0
  5  6  1  0
  6  7  2  0
  7  8  1  0
  8  9  2  0
  9 10  1  0
 10 11  2  0
 11  2  1  0
 11  6  1  0
  1 12  1  0
  1 13  1  0
  3 14  1  0
  4 15  1  0
  5 16  1  0
  7 17  1  0
  8 18  1  0
  9 19  1  0
 10 20  1  0
M  END
>  <Energy>  (1) 
36.416543169202555

>  <Real charge>  (1) 
0

>  <Mult>  (1) 
1

$$$$
