mol_1080 159
     RDKit          3D

 21 21  0  0  0  0  0  0  0  0999 V2000
    3.3114    0.3025    0.0067 C   0  0  0  0  0  0  0  0  0  0  0  0
    1.8558    0.4297    0.4273 C   0  0  0  0  0  0  0  0  0  0  0  0
    0.9377   -0.3834   -0.4860 C   0  0  0  0  0  0  0  0  0  0  0  0
   -0.5081   -0.2616   -0.0742 C   0  0  0  0  0  0  0  0  0  0  0  0
   -1.0596   -1.1527    0.8559 C   0  0  0  0  0  0  0  0  0  0  0  0
   -2.3933   -1.0293    1.2488 C   0  0  0  0  0  0  0  0  0  0  0  0
   -3.1858   -0.0123    0.7196 C   0  0  0  0  0  0  0  0  0  0  0  0
   -2.6451    0.8833   -0.2010 C   0  0  0  0  0  0  0  0  0  0  0  0
   -1.3116    0.7614   -0.5950 C   0  0  0  0  0  0  0  0  0  0  0  0
    3.9510    0.8909    0.6719 H   0  0  0  0  0  0  0  0  0  0  0  0
    3.4576    0.6669   -1.0152 H   0  0  0  0  0  0  0  0  0  0  0  0
    3.6428   -0.7399    0.0512 H   0  0  0  0  0  0  0  0  0  0  0  0
    1.5676    1.4878    0.4076 H   0  0  0  0  0  0  0  0  0  0  0  0
    1.7514    0.0921    1.4656 H   0  0  0  0  0  0  0  0  0  0  0  0
    1.0488   -0.0523   -1.5264 H   0  0  0  0  0  0  0  0  0  0  0  0
    1.2316   -1.4408   -0.4740 H   0  0  0  0  0  0  0  0  0  0  0  0
   -0.4518   -1.9483    1.2806 H   0  0  0  0  0  0  0  0  0  0  0  0
   -2.8133   -1.7261    1.9692 H   0  0  0  0  0  0  0  0  0  0  0  0
   -4.2239    0.0835    1.0263 H   0  0  0  0  0  0  0  0  0  0  0  0
   -3.2614    1.6785   -0.6117 H   0  0  0  0  0  0  0  0  0  0  0  0
   -0.9019    1.4703   -1.3108 H   0  0  0  0  0  0  0  0  0  0  0  0
  1  2  1  0
  2  3  1  0
  3  4  1  0
  4  5  2  0
  5  6  1  0
  6  7  2  0
  7  8  1  0
  8  9  2  0
  9  4  1  0
  1 10  1  0
  1 11  1  0
  1 12  1  0
  2 13  1  0
  2 14  1  0
  3 15  1  0
  3 16  1  0
  5 17  1  0
  6 18  1  0
  7 19  1  0
  8 20  1  0
  9 21  1  0
M  END
>  <Energy>  (1) 
17.757500647075105

>  <Real charge>  (1) 
0

>  <Mult>  (1) 
1

$$$$
mol_1080 134
     RDKit          3D

 21 21  0  0  0  0  0  0  0  0999 V2000
    2.0574   -0.8781    1.3181 C   0  0  0  0  0  0  0  0  0  0  0  0
    2.2047   -0.0196    0.0695 C   0  0  0  0  0  0  0  0  0  0  0  0
    1.1630   -0.3376   -1.0073 C   0  0  0  0  0  0  0  0  0  0  0  0
   -0.2464    0.0359   -0.6191 C   0  0  0  0  0  0  0  0  0  0  0  0
   -1.1796   -0.9544   -0.2844 C   0  0  0  0  0  0  0  0  0  0  0  0
   -2.4814   -0.6063    0.0802 C   0  0  0  0  0  0  0  0  0  0  0  0
   -2.8629    0.7335    0.1135 C   0  0  0  0  0  0  0  0  0  0  0  0
   -1.9433    1.7266   -0.2176 C   0  0  0  0  0  0  0  0  0  0  0  0
   -0.6412    1.3803   -0.5821 C   0  0  0  0  0  0  0  0  0  0  0  0
    1.1145   -0.6756    1.8350 H   0  0  0  0  0  0  0  0  0  0  0  0
    2.0940   -1.9434    1.0690 H   0  0  0  0  0  0  0  0  0  0  0  0
    2.8723   -0.6662    2.0177 H   0  0  0  0  0  0  0  0  0  0  0  0
    2.1594    1.0389    0.3510 H   0  0  0  0  0  0  0  0  0  0  0  0
    3.2021   -0.1926   -0.3522 H   0  0  0  0  0  0  0  0  0  0  0  0
    1.4198    0.2053   -1.9262 H   0  0  0  0  0  0  0  0  0  0  0  0
    1.2132   -1.4022   -1.2686 H   0  0  0  0  0  0  0  0  0  0  0  0
   -0.8973   -2.0045   -0.3024 H   0  0  0  0  0  0  0  0  0  0  0  0
   -3.1977   -1.3816    0.3390 H   0  0  0  0  0  0  0  0  0  0  0  0
   -3.8764    1.0035    0.3975 H   0  0  0  0  0  0  0  0  0  0  0  0
   -2.2396    2.7718   -0.1921 H   0  0  0  0  0  0  0  0  0  0  0  0
    0.0654    2.1662   -0.8386 H   0  0  0  0  0  0  0  0  0  0  0  0
  1  2  1  0
  2  3  1  0
  3  4  1  0
  4  5  2  0
  5  6  1  0
  6  7  2  0
  7  8  1  0
  8  9  2  0
  9  4  1  0
  1 10  1  0
  1 11  1  0
  1 12  1  0
  2 13  1  0
  2 14  1  0
  3 15  1  0
  3 16  1  0
  5 17  1  0
  6 18  1  0
  7 19  1  0
  8 20  1  0
  9 21  1  0
M  END
>  <Energy>  (2) 
17.83009034475763

>  <Real charge>  (2) 
0

>  <Mult>  (2) 
1

$$$$
