mol_909 14
     RDKit          3D

 22 23  0  0  0  0  0  0  0  0999 V2000
    5.2517   -0.3569    0.5462 Cl  0  0  0  0  0  0  0  0  0  0  0  0
    3.5439   -0.2460    0.3743 C   0  0  0  0  0  0  0  0  0  0  0  0
    2.9914    0.0025   -0.8794 C   0  0  0  0  0  0  0  0  0  0  0  0
    1.6044    0.0944   -1.0222 C   0  0  0  0  0  0  0  0  0  0  0  0
    0.7532   -0.0633    0.0868 C   0  0  0  0  0  0  0  0  0  0  0  0
    1.3385   -0.3110    1.3452 C   0  0  0  0  0  0  0  0  0  0  0  0
    0.3698   -0.5053    2.7666 Cl  0  0  0  0  0  0  0  0  0  0  0  0
    2.7255   -0.4028    1.4887 C   0  0  0  0  0  0  0  0  0  0  0  0
   -0.7053    0.0385   -0.1027 C   0  0  0  0  0  0  0  0  0  0  0  0
   -1.3093    1.3018    0.0028 C   0  0  0  0  0  0  0  0  0  0  0  0
   -2.6888    1.4581   -0.1548 C   0  0  0  0  0  0  0  0  0  0  0  0
   -3.3172    3.0631   -0.0024 Cl  0  0  0  0  0  0  0  0  0  0  0  0
   -3.5015    0.3491   -0.4254 C   0  0  0  0  0  0  0  0  0  0  0  0
   -5.2163    0.5609   -0.6219 Cl  0  0  0  0  0  0  0  0  0  0  0  0
   -2.9163   -0.9257   -0.5387 C   0  0  0  0  0  0  0  0  0  0  0  0
   -3.9110   -2.3143   -0.8816 Cl  0  0  0  0  0  0  0  0  0  0  0  0
   -1.5231   -1.0789   -0.3787 C   0  0  0  0  0  0  0  0  0  0  0  0
   -0.7825   -2.6494   -0.5250 Cl  0  0  0  0  0  0  0  0  0  0  0  0
    3.6325    0.1228   -1.7496 H   0  0  0  0  0  0  0  0  0  0  0  0
    1.1898    0.2835   -2.0114 H   0  0  0  0  0  0  0  0  0  0  0  0
    3.1641   -0.5961    2.4641 H   0  0  0  0  0  0  0  0  0  0  0  0
   -0.6937    2.1753    0.2192 H   0  0  0  0  0  0  0  0  0  0  0  0
  1  2  1  0
  2  3  2  0
  3  4  1  0
  4  5  2  0
  5  6  1  0
  6  7  1  0
  6  8  2  0
  5  9  1  0
  9 10  2  0
 10 11  1  0
 11 12  1  0
 11 13  2  0
 13 14  1  0
 13 15  1  0
 15 16  1  0
 15 17  2  0
 17 18  1  0
  8  2  1  0
 17  9  1  0
  3 19  1  0
  4 20  1  0
  8 21  1  0
 10 22  1  0
M  END
>  <Energy>  (1) 
50.732622982509106

>  <Real charge>  (1) 
0

>  <Mult>  (1) 
1

$$$$
