mol_491 29
     RDKit          3D

 11 10  0  0  0  0  0  0  0  0999 V2000
    1.2162   -0.4155   -0.1383 C   0  0  0  0  0  0  0  0  0  0  0  0
    0.0750    0.5634    0.0757 C   0  0  0  0  0  0  0  0  0  0  0  0
   -1.2594   -0.1390    0.2562 C   0  0  0  0  0  0  0  0  0  0  0  0
   -0.0394    1.7508   -1.4753 Br  0  0  0  0  0  0  0  0  0  0  0  0
    1.3223   -1.0790    0.7265 H   0  0  0  0  0  0  0  0  0  0  0  0
    2.1679    0.1100   -0.2736 H   0  0  0  0  0  0  0  0  0  0  0  0
    1.0535   -1.0402   -1.0238 H   0  0  0  0  0  0  0  0  0  0  0  0
    0.2839    1.2125    0.9317 H   0  0  0  0  0  0  0  0  0  0  0  0
   -1.5149   -0.7532   -0.6146 H   0  0  0  0  0  0  0  0  0  0  0  0
   -1.2351   -0.7933    1.1339 H   0  0  0  0  0  0  0  0  0  0  0  0
   -2.0701    0.5835    0.4016 H   0  0  0  0  0  0  0  0  0  0  0  0
  1  2  1  0
  2  3  1  0
  2  4  1  0
  1  5  1  0
  1  6  1  0
  1  7  1  0
  2  8  1  0
  3  9  1  0
  3 10  1  0
  3 11  1  0
M  END
>  <Energy>  (1) 
0.6471763961666269

>  <Real charge>  (1) 
0

>  <Mult>  (1) 
1

$$$$
