mol_43 77
     RDKit          3D

 20 21  0  0  0  0  0  0  0  0999 V2000
    3.9071   -0.2398    0.2044 O   0  0  0  0  0  0  0  0  0  0  0  0
    2.6859   -0.1429    0.1472 C   0  0  0  0  0  0  0  0  0  0  0  0
    1.9086   -1.1870   -0.2254 N   0  0  0  0  0  0  0  0  0  0  0  0
    0.5416   -1.2095   -0.3293 C   0  0  0  0  0  0  0  0  0  0  0  0
    0.0191   -2.2714   -0.6893 O   0  0  0  0  0  0  0  0  0  0  0  0
   -0.2562    0.0922    0.0098 C   0  0  0  0  0  0  0  0  0  0  0  0
   -1.3253    0.5021   -1.0655 C   0  0  0  0  0  0  0  0  0  0  0  0
   -2.3922   -0.2344   -0.2410 C   0  0  0  0  0  0  0  0  0  0  0  0
   -1.4707   -0.1208    0.9830 C   0  0  0  0  0  0  0  0  0  0  0  0
    0.7015    1.2508    0.4301 C   0  0  0  0  0  0  0  0  0  0  0  0
    0.3192    2.3839    0.7475 O   0  0  0  0  0  0  0  0  0  0  0  0
    2.0515    1.0132    0.4537 N   0  0  0  0  0  0  0  0  0  0  0  0
    2.3885   -2.0470   -0.4529 H   0  0  0  0  0  0  0  0  0  0  0  0
   -1.1674    0.1060   -2.0731 H   0  0  0  0  0  0  0  0  0  0  0  0
   -1.5002    1.5816   -1.1438 H   0  0  0  0  0  0  0  0  0  0  0  0
   -2.5672   -1.2657   -0.5670 H   0  0  0  0  0  0  0  0  0  0  0  0
   -3.3559    0.2743   -0.1548 H   0  0  0  0  0  0  0  0  0  0  0  0
   -1.4290   -1.0147    1.6126 H   0  0  0  0  0  0  0  0  0  0  0  0
   -1.6965    0.7403    1.6229 H   0  0  0  0  0  0  0  0  0  0  0  0
    2.6375    1.7887    0.7310 H   0  0  0  0  0  0  0  0  0  0  0  0
  1  2  2  0
  2  3  1  0
  3  4  1  0
  4  5  2  0
  4  6  1  0
  6  7  1  0
  7  8  1  0
  8  9  1  0
  6 10  1  0
 10 11  2  0
 10 12  1  0
  9  6  1  0
 12  2  1  0
  3 13  1  0
  7 14  1  0
  7 15  1  0
  8 16  1  0
  8 17  1  0
  9 18  1  0
  9 19  1  0
 12 20  1  0
M  END
>  <Energy>  (1) 
-136.19870790485948

>  <Real charge>  (1) 
0

>  <Mult>  (1) 
1

$$$$
