mol_751 173
     RDKit          3D

 49 52  0  0  0  0  0  0  0  0999 V2000
    2.7068   -1.9716   -0.8246 C   0  0  0  0  0  0  0  0  0  0  0  0
    2.5233   -0.6627   -0.0392 C   0  0  0  0  0  0  0  0  0  0  0  0
    1.7880   -0.9451    1.2905 C   0  0  0  0  0  0  0  0  0  0  0  0
    0.2997   -1.2403    1.1017 C   0  0  0  0  0  0  0  0  0  0  0  0
   -0.4288   -0.1033    0.3554 C   0  0  0  0  0  0  0  0  0  0  0  0
    0.2701    0.1753   -1.0015 C   0  0  0  0  0  0  0  0  0  0  0  0
   -0.4101    1.3427   -1.7313 C   0  0  0  0  0  0  0  0  0  0  0  0
   -1.8900    1.0678   -1.9567 C   0  0  0  0  0  0  0  0  0  0  0  0
   -2.6014    0.7583   -0.6615 C   0  0  0  0  0  0  0  0  0  0  0  0
   -3.7292    1.4209   -0.3480 C   0  0  0  0  0  0  0  0  0  0  0  0
   -4.5328    1.0730    0.8459 C   0  0  0  0  0  0  0  0  0  0  0  0
   -5.5376    1.7285    1.1102 O   0  0  0  0  0  0  0  0  0  0  0  0
   -4.1272   -0.1378    1.6428 C   0  0  0  0  0  0  0  0  0  0  0  0
   -2.6131   -0.2926    1.6418 C   0  0  0  0  0  0  0  0  0  0  0  0
   -1.9853   -0.3394    0.2158 C   0  0  0  0  0  0  0  0  0  0  0  0
   -2.3116   -1.7060   -0.4288 C   0  0  0  0  0  0  0  0  0  0  0  0
    1.7904    0.4115   -0.8690 C   0  0  0  0  0  0  0  0  0  0  0  0
    2.2058    1.7390   -0.2068 C   0  0  0  0  0  0  0  0  0  0  0  0
    3.5666    1.4852    0.4450 C   0  0  0  0  0  0  0  0  0  0  0  0
    3.8914    0.0161    0.1821 C   0  0  0  0  0  0  0  0  0  0  0  0
    4.6137   -0.5597    1.2545 O   0  0  0  0  0  0  0  0  0  0  0  0
    3.2873   -2.6981   -0.2452 H   0  0  0  0  0  0  0  0  0  0  0  0
    1.7502   -2.4361   -1.0811 H   0  0  0  0  0  0  0  0  0  0  0  0
    3.2425   -1.7980   -1.7648 H   0  0  0  0  0  0  0  0  0  0  0  0
    2.2559   -1.7920    1.8082 H   0  0  0  0  0  0  0  0  0  0  0  0
    1.8799   -0.0903    1.9722 H   0  0  0  0  0  0  0  0  0  0  0  0
   -0.1401   -1.3879    2.0937 H   0  0  0  0  0  0  0  0  0  0  0  0
    0.1860   -2.1880    0.5655 H   0  0  0  0  0  0  0  0  0  0  0  0
   -0.3068    0.8031    0.9665 H   0  0  0  0  0  0  0  0  0  0  0  0
    0.1507   -0.7170   -1.6307 H   0  0  0  0  0  0  0  0  0  0  0  0
    0.0749    1.5088   -2.7008 H   0  0  0  0  0  0  0  0  0  0  0  0
   -0.3016    2.2715   -1.1576 H   0  0  0  0  0  0  0  0  0  0  0  0
   -2.3371    1.9345   -2.4589 H   0  0  0  0  0  0  0  0  0  0  0  0
   -2.0086    0.2201   -2.6426 H   0  0  0  0  0  0  0  0  0  0  0  0
   -4.1462    2.2030   -0.9731 H   0  0  0  0  0  0  0  0  0  0  0  0
   -4.6257   -1.0177    1.2244 H   0  0  0  0  0  0  0  0  0  0  0  0
   -4.4738   -0.0071    2.6739 H   0  0  0  0  0  0  0  0  0  0  0  0
   -2.1876    0.5530    2.2003 H   0  0  0  0  0  0  0  0  0  0  0  0
   -2.3581   -1.1962    2.2078 H   0  0  0  0  0  0  0  0  0  0  0  0
   -1.7785   -1.8561   -1.3729 H   0  0  0  0  0  0  0  0  0  0  0  0
   -3.3812   -1.8025   -0.6493 H   0  0  0  0  0  0  0  0  0  0  0  0
   -2.0478   -2.5373    0.2337 H   0  0  0  0  0  0  0  0  0  0  0  0
    2.2124    0.4190   -1.8856 H   0  0  0  0  0  0  0  0  0  0  0  0
    1.4940    2.0627    0.5592 H   0  0  0  0  0  0  0  0  0  0  0  0
    2.2686    2.5434   -0.9479 H   0  0  0  0  0  0  0  0  0  0  0  0
    3.5305    1.7080    1.5177 H   0  0  0  0  0  0  0  0  0  0  0  0
    4.3388    2.1338    0.0167 H   0  0  0  0  0  0  0  0  0  0  0  0
    4.5086   -0.0605   -0.7223 H   0  0  0  0  0  0  0  0  0  0  0  0
    5.4241   -0.0360    1.3761 H   0  0  0  0  0  0  0  0  0  0  0  0
  1  2  1  0
  2  3  1  0
  3  4  1  0
  4  5  1  0
  5  6  1  0
  6  7  1  0
  7  8  1  0
  8  9  1  0
  9 10  2  0
 10 11  1  0
 11 12  2  0
 11 13  1  0
 13 14  1  0
 14 15  1  0
 15 16  1  0
  6 17  1  0
 17 18  1  0
 18 19  1  0
 19 20  1  0
 20 21  1  0
 20  2  1  0
 17  2  1  0
 15  5  1  0
 15  9  1  0
  1 22  1  0
  1 23  1  0
  1 24  1  0
  3 25  1  0
  3 26  1  0
  4 27  1  0
  4 28  1  0
  5 29  1  0
  6 30  1  0
  7 31  1  0
  7 32  1  0
  8 33  1  0
  8 34  1  0
 10 35  1  0
 13 36  1  0
 13 37  1  0
 14 38  1  0
 14 39  1  0
 16 40  1  0
 16 41  1  0
 16 42  1  0
 17 43  1  0
 18 44  1  0
 18 45  1  0
 19 46  1  0
 19 47  1  0
 20 48  1  0
 21 49  1  0
M  END
>  <Energy>  (1) 
67.6533510896417

>  <Real charge>  (1) 
0

>  <Mult>  (1) 
1

$$$$
mol_751 291
     RDKit          3D

 49 52  0  0  0  0  0  0  0  0999 V2000
   -2.8948   -1.0598   -1.5367 C   0  0  0  0  0  0  0  0  0  0  0  0
   -2.5724   -0.4412   -0.1663 C   0  0  0  0  0  0  0  0  0  0  0  0
   -1.7707   -1.4461    0.6910 C   0  0  0  0  0  0  0  0  0  0  0  0
   -0.3226   -1.6080    0.2278 C   0  0  0  0  0  0  0  0  0  0  0  0
    0.4315   -0.2624    0.1943 C   0  0  0  0  0  0  0  0  0  0  0  0
   -0.3357    0.7552   -0.6908 C   0  0  0  0  0  0  0  0  0  0  0  0
    0.3734    2.1174   -0.6880 C   0  0  0  0  0  0  0  0  0  0  0  0
    1.8120    1.9935   -1.1690 C   0  0  0  0  0  0  0  0  0  0  0  0
    2.5859    0.9851   -0.3543 C   0  0  0  0  0  0  0  0  0  0  0  0
    3.7764    1.3275    0.1698 C   0  0  0  0  0  0  0  0  0  0  0  0
    4.6331    0.3442    0.8707 C   0  0  0  0  0  0  0  0  0  0  0  0
    5.6990    0.7108    1.3592 O   0  0  0  0  0  0  0  0  0  0  0  0
    4.1968   -1.0965    0.8764 C   0  0  0  0  0  0  0  0  0  0  0  0
    2.6790   -1.1931    0.9322 C   0  0  0  0  0  0  0  0  0  0  0  0
    1.9551   -0.4051   -0.2013 C   0  0  0  0  0  0  0  0  0  0  0  0
    2.1416   -1.1641   -1.5350 C   0  0  0  0  0  0  0  0  0  0  0  0
   -1.8240    0.9011   -0.3049 C   0  0  0  0  0  0  0  0  0  0  0  0
   -2.1004    1.6195    1.0288 C   0  0  0  0  0  0  0  0  0  0  0  0
   -3.4319    1.0696    1.5430 C   0  0  0  0  0  0  0  0  0  0  0  0
   -3.8727    0.0140    0.5309 C   0  0  0  0  0  0  0  0  0  0  0  0
   -4.5618   -1.0395    1.1783 O   0  0  0  0  0  0  0  0  0  0  0  0
   -3.4717   -1.9844   -1.4256 H   0  0  0  0  0  0  0  0  0  0  0  0
   -1.9903   -1.2983   -2.1040 H   0  0  0  0  0  0  0  0  0  0  0  0
   -3.4886   -0.3737   -2.1512 H   0  0  0  0  0  0  0  0  0  0  0  0
   -1.7572   -1.1324    1.7424 H   0  0  0  0  0  0  0  0  0  0  0  0
   -2.2607   -2.4279    0.6783 H   0  0  0  0  0  0  0  0  0  0  0  0
    0.1715   -2.3046    0.9132 H   0  0  0  0  0  0  0  0  0  0  0  0
   -0.3115   -2.0807   -0.7597 H   0  0  0  0  0  0  0  0  0  0  0  0
    0.4140    0.1339    1.2202 H   0  0  0  0  0  0  0  0  0  0  0  0
   -0.3202    0.3815   -1.7234 H   0  0  0  0  0  0  0  0  0  0  0  0
   -0.1631    2.8175   -1.3398 H   0  0  0  0  0  0  0  0  0  0  0  0
    0.3686    2.5523    0.3192 H   0  0  0  0  0  0  0  0  0  0  0  0
    1.8248    1.6890   -2.2227 H   0  0  0  0  0  0  0  0  0  0  0  0
    2.2835    2.9831   -1.1292 H   0  0  0  0  0  0  0  0  0  0  0  0
    4.2040    2.3186    0.0629 H   0  0  0  0  0  0  0  0  0  0  0  0
    4.6027   -1.5905   -0.0119 H   0  0  0  0  0  0  0  0  0  0  0  0
    4.6202   -1.5840    1.7616 H   0  0  0  0  0  0  0  0  0  0  0  0
    2.3526   -0.8095    1.9091 H   0  0  0  0  0  0  0  0  0  0  0  0
    2.3995   -2.2530    0.9074 H   0  0  0  0  0  0  0  0  0  0  0  0
    1.5372   -0.7377   -2.3418 H   0  0  0  0  0  0  0  0  0  0  0  0
    1.8657   -2.2197   -1.4399 H   0  0  0  0  0  0  0  0  0  0  0  0
    3.1847   -1.1373   -1.8715 H   0  0  0  0  0  0  0  0  0  0  0  0
   -2.3119    1.4959   -1.0922 H   0  0  0  0  0  0  0  0  0  0  0  0
   -2.1516    2.7046    0.8867 H   0  0  0  0  0  0  0  0  0  0  0  0
   -1.3205    1.4295    1.7730 H   0  0  0  0  0  0  0  0  0  0  0  0
   -3.3142    0.6470    2.5477 H   0  0  0  0  0  0  0  0  0  0  0  0
   -4.1830    1.8631    1.6242 H   0  0  0  0  0  0  0  0  0  0  0  0
   -4.5601    0.4793   -0.1871 H   0  0  0  0  0  0  0  0  0  0  0  0
   -4.8212   -1.6837    0.4981 H   0  0  0  0  0  0  0  0  0  0  0  0
  1  2  1  0
  2  3  1  0
  3  4  1  0
  4  5  1  0
  5  6  1  0
  6  7  1  0
  7  8  1  0
  8  9  1  0
  9 10  2  0
 10 11  1  0
 11 12  2  0
 11 13  1  0
 13 14  1  0
 14 15  1  0
 15 16  1  0
  6 17  1  0
 17 18  1  0
 18 19  1  0
 19 20  1  0
 20 21  1  0
 20  2  1  0
 17  2  1  0
 15  5  1  0
 15  9  1  0
  1 22  1  0
  1 23  1  0
  1 24  1  0
  3 25  1  0
  3 26  1  0
  4 27  1  0
  4 28  1  0
  5 29  1  0
  6 30  1  0
  7 31  1  0
  7 32  1  0
  8 33  1  0
  8 34  1  0
 10 35  1  0
 13 36  1  0
 13 37  1  0
 14 38  1  0
 14 39  1  0
 16 40  1  0
 16 41  1  0
 16 42  1  0
 17 43  1  0
 18 44  1  0
 18 45  1  0
 19 46  1  0
 19 47  1  0
 20 48  1  0
 21 49  1  0
M  END
>  <Energy>  (2) 
67.81047067938069

>  <Real charge>  (2) 
0

>  <Mult>  (2) 
1

$$$$
mol_751 406
     RDKit          3D

 49 52  0  0  0  0  0  0  0  0999 V2000
    2.6690   -2.0326    0.6900 C   0  0  0  0  0  0  0  0  0  0  0  0
    2.5354   -0.5296    0.3909 C   0  0  0  0  0  0  0  0  0  0  0  0
    1.8292    0.1835    1.5676 C   0  0  0  0  0  0  0  0  0  0  0  0
    0.3351   -0.1293    1.6574 C   0  0  0  0  0  0  0  0  0  0  0  0
   -0.4097    0.2048    0.3481 C   0  0  0  0  0  0  0  0  0  0  0  0
    0.2598   -0.5232   -0.8474 C   0  0  0  0  0  0  0  0  0  0  0  0
   -0.4356   -0.1518   -2.1653 C   0  0  0  0  0  0  0  0  0  0  0  0
   -1.9202   -0.4841   -2.1210 C   0  0  0  0  0  0  0  0  0  0  0  0
   -2.6038    0.1780   -0.9486 C   0  0  0  0  0  0  0  0  0  0  0  0
   -3.7248    0.8934   -1.1505 C   0  0  0  0  0  0  0  0  0  0  0  0
   -4.5028    1.4595   -0.0251 C   0  0  0  0  0  0  0  0  0  0  0  0
   -5.5019    2.1347   -0.2594 O   0  0  0  0  0  0  0  0  0  0  0  0
   -4.0800    1.1049    1.3753 C   0  0  0  0  0  0  0  0  0  0  0  0
   -2.5662    0.9694    1.4558 C   0  0  0  0  0  0  0  0  0  0  0  0
   -1.9689   -0.0415    0.4307 C   0  0  0  0  0  0  0  0  0  0  0  0
   -2.3083   -1.4779    0.8902 C   0  0  0  0  0  0  0  0  0  0  0  0
    1.7832   -0.2820   -0.9347 C   0  0  0  0  0  0  0  0  0  0  0  0
    2.2100    1.1371   -1.3506 C   0  0  0  0  0  0  0  0  0  0  0  0
    3.5734    1.3915   -0.6986 C   0  0  0  0  0  0  0  0  0  0  0  0
    3.9040    0.1328    0.1047 C   0  0  0  0  0  0  0  0  0  0  0  0
    4.7323   -0.6892   -0.7143 O   0  0  0  0  0  0  0  0  0  0  0  0
    3.3097   -2.1979    1.5632 H   0  0  0  0  0  0  0  0  0  0  0  0
    1.7015   -2.5005    0.8947 H   0  0  0  0  0  0  0  0  0  0  0  0
    3.1071   -2.5781   -0.1529 H   0  0  0  0  0  0  0  0  0  0  0  0
    2.3125   -0.0947    2.5129 H   0  0  0  0  0  0  0  0  0  0  0  0
    1.9405    1.2720    1.4882 H   0  0  0  0  0  0  0  0  0  0  0  0
   -0.0783    0.4516    2.4887 H   0  0  0  0  0  0  0  0  0  0  0  0
    0.2018   -1.1838    1.9189 H   0  0  0  0  0  0  0  0  0  0  0  0
   -0.2757    1.2831    0.1774 H   0  0  0  0  0  0  0  0  0  0  0  0
    0.1264   -1.6035   -0.7014 H   0  0  0  0  0  0  0  0  0  0  0  0
    0.0283   -0.6958   -2.9970 H   0  0  0  0  0  0  0  0  0  0  0  0
   -0.3142    0.9177   -2.3774 H   0  0  0  0  0  0  0  0  0  0  0  0
   -2.0540   -1.5703   -2.0474 H   0  0  0  0  0  0  0  0  0  0  0  0
   -2.3778   -0.1816   -3.0709 H   0  0  0  0  0  0  0  0  0  0  0  0
   -4.1549    1.0495   -2.1340 H   0  0  0  0  0  0  0  0  0  0  0  0
   -4.4049    1.9053    2.0493 H   0  0  0  0  0  0  0  0  0  0  0  0
   -4.5869    0.1817    1.6730 H   0  0  0  0  0  0  0  0  0  0  0  0
   -2.1293    1.9634    1.2851 H   0  0  0  0  0  0  0  0  0  0  0  0
   -2.2987    0.6862    2.4806 H   0  0  0  0  0  0  0  0  0  0  0  0
   -2.0311   -1.6423    1.9369 H   0  0  0  0  0  0  0  0  0  0  0  0
   -1.7948   -2.2364    0.2911 H   0  0  0  0  0  0  0  0  0  0  0  0
   -3.3822   -1.6834    0.8099 H   0  0  0  0  0  0  0  0  0  0  0  0
    2.1793   -0.9681   -1.6985 H   0  0  0  0  0  0  0  0  0  0  0  0
    1.5018    1.9027   -1.0179 H   0  0  0  0  0  0  0  0  0  0  0  0
    2.2781    1.2175   -2.4413 H   0  0  0  0  0  0  0  0  0  0  0  0
    3.4972    2.2604   -0.0349 H   0  0  0  0  0  0  0  0  0  0  0  0
    4.3328    1.6160   -1.4553 H   0  0  0  0  0  0  0  0  0  0  0  0
    4.4633    0.3754    1.0146 H   0  0  0  0  0  0  0  0  0  0  0  0
    5.0933   -1.3946   -0.1510 H   0  0  0  0  0  0  0  0  0  0  0  0
  1  2  1  0
  2  3  1  0
  3  4  1  0
  4  5  1  0
  5  6  1  0
  6  7  1  0
  7  8  1  0
  8  9  1  0
  9 10  2  0
 10 11  1  0
 11 12  2  0
 11 13  1  0
 13 14  1  0
 14 15  1  0
 15 16  1  0
  6 17  1  0
 17 18  1  0
 18 19  1  0
 19 20  1  0
 20 21  1  0
 20  2  1  0
 17  2  1  0
 15  5  1  0
 15  9  1  0
  1 22  1  0
  1 23  1  0
  1 24  1  0
  3 25  1  0
  3 26  1  0
  4 27  1  0
  4 28  1  0
  5 29  1  0
  6 30  1  0
  7 31  1  0
  7 32  1  0
  8 33  1  0
  8 34  1  0
 10 35  1  0
 13 36  1  0
 13 37  1  0
 14 38  1  0
 14 39  1  0
 16 40  1  0
 16 41  1  0
 16 42  1  0
 17 43  1  0
 18 44  1  0
 18 45  1  0
 19 46  1  0
 19 47  1  0
 20 48  1  0
 21 49  1  0
M  END
>  <Energy>  (3) 
68.39457299039204

>  <Real charge>  (3) 
0

>  <Mult>  (3) 
1

$$$$
mol_751 246
     RDKit          3D

 49 52  0  0  0  0  0  0  0  0999 V2000
    2.4761    2.2285   -0.9780 C   0  0  0  0  0  0  0  0  0  0  0  0
    2.3270    1.2181    0.1712 C   0  0  0  0  0  0  0  0  0  0  0  0
    1.2342    1.6962    1.1534 C   0  0  0  0  0  0  0  0  0  0  0  0
   -0.1822    1.5393    0.5990 C   0  0  0  0  0  0  0  0  0  0  0  0
   -0.4853    0.0850    0.1825 C   0  0  0  0  0  0  0  0  0  0  0  0
    0.5791   -0.4102   -0.8318 C   0  0  0  0  0  0  0  0  0  0  0  0
    0.3238   -1.8760   -1.2120 C   0  0  0  0  0  0  0  0  0  0  0  0
   -1.0714   -2.0631   -1.7908 C   0  0  0  0  0  0  0  0  0  0  0  0
   -2.1368   -1.5605   -0.8463 C   0  0  0  0  0  0  0  0  0  0  0  0
   -3.1752   -2.3558   -0.5324 C   0  0  0  0  0  0  0  0  0  0  0  0
   -4.3084   -1.8722    0.2888 C   0  0  0  0  0  0  0  0  0  0  0  0
   -5.2169   -2.6456    0.5810 O   0  0  0  0  0  0  0  0  0  0  0  0
   -4.3399   -0.4139    0.6606 C   0  0  0  0  0  0  0  0  0  0  0  0
   -2.9280    0.1076    0.8862 C   0  0  0  0  0  0  0  0  0  0  0  0
   -1.9686   -0.1295   -0.3193 C   0  0  0  0  0  0  0  0  0  0  0  0
   -2.3457    0.8469   -1.4568 C   0  0  0  0  0  0  0  0  0  0  0  0
    2.0301   -0.2059   -0.3445 C   0  0  0  0  0  0  0  0  0  0  0  0
    2.4844   -1.1205    0.8096 C   0  0  0  0  0  0  0  0  0  0  0  0
    3.5711   -0.3513    1.5647 C   0  0  0  0  0  0  0  0  0  0  0  0
    3.6919    0.9992    0.8602 C   0  0  0  0  0  0  0  0  0  0  0  0
    4.0518    2.0385    1.7510 O   0  0  0  0  0  0  0  0  0  0  0  0
    3.2575    1.9176   -1.6806 H   0  0  0  0  0  0  0  0  0  0  0  0
    2.7521    3.2176   -0.5962 H   0  0  0  0  0  0  0  0  0  0  0  0
    1.5522    2.3378   -1.5537 H   0  0  0  0  0  0  0  0  0  0  0  0
    1.2908    1.1380    2.0963 H   0  0  0  0  0  0  0  0  0  0  0  0
    1.3985    2.7486    1.4174 H   0  0  0  0  0  0  0  0  0  0  0  0
   -0.3146    2.2189   -0.2491 H   0  0  0  0  0  0  0  0  0  0  0  0
   -0.8827    1.8671    1.3742 H   0  0  0  0  0  0  0  0  0  0  0  0
   -0.3721   -0.5313    1.0865 H   0  0  0  0  0  0  0  0  0  0  0  0
    0.4748    0.1874   -1.7473 H   0  0  0  0  0  0  0  0  0  0  0  0
    1.0649   -2.2033   -1.9511 H   0  0  0  0  0  0  0  0  0  0  0  0
    0.4384   -2.5268   -0.3362 H   0  0  0  0  0  0  0  0  0  0  0  0
   -1.1524   -1.5241   -2.7426 H   0  0  0  0  0  0  0  0  0  0  0  0
   -1.2164   -3.1248   -2.0254 H   0  0  0  0  0  0  0  0  0  0  0  0
   -3.2741   -3.3700   -0.9038 H   0  0  0  0  0  0  0  0  0  0  0  0
   -4.8563    0.1398   -0.1297 H   0  0  0  0  0  0  0  0  0  0  0  0
   -4.9153   -0.3039    1.5864 H   0  0  0  0  0  0  0  0  0  0  0  0
   -2.9889    1.1749    1.1294 H   0  0  0  0  0  0  0  0  0  0  0  0
   -2.5232   -0.3907    1.7783 H   0  0  0  0  0  0  0  0  0  0  0  0
   -3.3216    0.6012   -1.8918 H   0  0  0  0  0  0  0  0  0  0  0  0
   -2.4093    1.8794   -1.0970 H   0  0  0  0  0  0  0  0  0  0  0  0
   -1.6199    0.8284   -2.2759 H   0  0  0  0  0  0  0  0  0  0  0  0
    2.6952   -0.4169   -1.1960 H   0  0  0  0  0  0  0  0  0  0  0  0
    1.6668   -1.3583    1.4976 H   0  0  0  0  0  0  0  0  0  0  0  0
    2.8700   -2.0719    0.4270 H   0  0  0  0  0  0  0  0  0  0  0  0
    3.3035   -0.2413    2.6218 H   0  0  0  0  0  0  0  0  0  0  0  0
    4.5269   -0.8864    1.5394 H   0  0  0  0  0  0  0  0  0  0  0  0
    4.4870    0.9293    0.1071 H   0  0  0  0  0  0  0  0  0  0  0  0
    3.4575    2.0090    2.5191 H   0  0  0  0  0  0  0  0  0  0  0  0
  1  2  1  0
  2  3  1  0
  3  4  1  0
  4  5  1  0
  5  6  1  0
  6  7  1  0
  7  8  1  0
  8  9  1  0
  9 10  2  0
 10 11  1  0
 11 12  2  0
 11 13  1  0
 13 14  1  0
 14 15  1  0
 15 16  1  0
  6 17  1  0
 17 18  1  0
 18 19  1  0
 19 20  1  0
 20 21  1  0
 20  2  1  0
 17  2  1  0
 15  5  1  0
 15  9  1  0
  1 22  1  0
  1 23  1  0
  1 24  1  0
  3 25  1  0
  3 26  1  0
  4 27  1  0
  4 28  1  0
  5 29  1  0
  6 30  1  0
  7 31  1  0
  7 32  1  0
  8 33  1  0
  8 34  1  0
 10 35  1  0
 13 36  1  0
 13 37  1  0
 14 38  1  0
 14 39  1  0
 16 40  1  0
 16 41  1  0
 16 42  1  0
 17 43  1  0
 18 44  1  0
 18 45  1  0
 19 46  1  0
 19 47  1  0
 20 48  1  0
 21 49  1  0
M  END
>  <Energy>  (4) 
68.45144522657733

>  <Real charge>  (4) 
0

>  <Mult>  (4) 
1

$$$$
