mol_49 393
     RDKit          3D

 43 44  0  0  0  0  0  0  0  0999 V2000
   -1.7014    3.8051    1.4722 C   0  0  0  0  0  0  0  0  0  0  0  0
   -0.8537    2.9594    0.6956 O   0  0  0  0  0  0  0  0  0  0  0  0
   -1.5241    2.1020   -0.1090 C   0  0  0  0  0  0  0  0  0  0  0  0
   -2.7318    2.0282   -0.2634 O   0  0  0  0  0  0  0  0  0  0  0  0
   -0.5436    1.2574   -0.8113 C   0  0  0  0  0  0  0  0  0  0  0  0
   -0.3210    1.4042   -2.1351 C   0  0  0  0  0  0  0  0  0  0  0  0
   -1.0285    2.3976   -3.0203 C   0  0  0  0  0  0  0  0  0  0  0  0
    0.6387    0.6173   -2.7519 N   0  0  0  0  0  0  0  0  0  0  0  0
    1.4850   -0.2566   -2.0850 C   0  0  0  0  0  0  0  0  0  0  0  0
    1.3212   -0.4645   -0.7575 C   0  0  0  0  0  0  0  0  0  0  0  0
    0.2058    0.2310    0.0306 C   0  0  0  0  0  0  0  0  0  0  0  0
   -0.7596   -0.8052    0.6266 C   0  0  0  0  0  0  0  0  0  0  0  0
   -1.5138   -1.6201   -0.2448 C   0  0  0  0  0  0  0  0  0  0  0  0
   -2.3777   -2.6060    0.2428 C   0  0  0  0  0  0  0  0  0  0  0  0
   -2.5111   -2.8113    1.6134 C   0  0  0  0  0  0  0  0  0  0  0  0
   -1.7837   -2.0262    2.5032 C   0  0  0  0  0  0  0  0  0  0  0  0
   -0.9234   -1.0326    2.0080 C   0  0  0  0  0  0  0  0  0  0  0  0
   -0.2119   -0.2460    3.0023 N   0  0  0  0  0  4  0  0  0  0  0  0
   -0.4237    0.9727    3.0177 O   0  0  0  0  0  1  0  0  0  0  0  0
    0.5307   -0.8594    3.7806 O   0  0  0  0  0  0  0  0  0  0  0  0
    2.1887   -1.4076   -0.0141 C   0  0  0  0  0  0  0  0  0  0  0  0
    2.5467   -2.4984   -0.4280 O   0  0  0  0  0  0  0  0  0  0  0  0
    2.5033   -0.8677    1.1887 O   0  0  0  0  0  0  0  0  0  0  0  0
    3.3226   -1.7042    2.0077 C   0  0  0  0  0  0  0  0  0  0  0  0
    2.5679   -0.8883   -2.9239 C   0  0  0  0  0  0  0  0  0  0  0  0
   -1.0686    4.4112    2.1263 H   0  0  0  0  0  0  0  0  0  0  0  0
   -2.2701    4.4751    0.8201 H   0  0  0  0  0  0  0  0  0  0  0  0
   -2.3746    3.2095    2.0971 H   0  0  0  0  0  0  0  0  0  0  0  0
   -1.6363    1.8698   -3.7628 H   0  0  0  0  0  0  0  0  0  0  0  0
   -0.2959    3.0142   -3.5529 H   0  0  0  0  0  0  0  0  0  0  0  0
   -1.6846    3.0806   -2.4749 H   0  0  0  0  0  0  0  0  0  0  0  0
    0.8242    0.7913   -3.7371 H   0  0  0  0  0  0  0  0  0  0  0  0
    0.7038    0.7998    0.8230 H   0  0  0  0  0  0  0  0  0  0  0  0
   -1.4309   -1.4961   -1.3251 H   0  0  0  0  0  0  0  0  0  0  0  0
   -2.9458   -3.2176   -0.4554 H   0  0  0  0  0  0  0  0  0  0  0  0
   -3.1823   -3.5819    1.9853 H   0  0  0  0  0  0  0  0  0  0  0  0
   -1.8916   -2.1892    3.5738 H   0  0  0  0  0  0  0  0  0  0  0  0
    4.2757   -1.9120    1.5114 H   0  0  0  0  0  0  0  0  0  0  0  0
    3.5267   -1.1703    2.9399 H   0  0  0  0  0  0  0  0  0  0  0  0
    2.7982   -2.6345    2.2473 H   0  0  0  0  0  0  0  0  0  0  0  0
    2.1819   -1.7796   -3.4283 H   0  0  0  0  0  0  0  0  0  0  0  0
    3.4516   -1.1635   -2.3417 H   0  0  0  0  0  0  0  0  0  0  0  0
    2.9171   -0.1877   -3.6912 H   0  0  0  0  0  0  0  0  0  0  0  0
  1  2  1  0
  2  3  1  0
  3  4  2  0
  3  5  1  0
  5  6  2  0
  6  7  1  0
  6  8  1  0
  8  9  1  0
  9 10  2  0
 10 11  1  0
 11 12  1  0
 12 13  2  0
 13 14  1  0
 14 15  2  0
 15 16  1  0
 16 17  2  0
 17 18  1  0
 18 19  1  0
 18 20  2  0
 10 21  1  0
 21 22  2  0
 21 23  1  0
 23 24  1  0
  9 25  1  0
 11  5  1  0
 17 12  1  0
  1 26  1  0
  1 27  1  0
  1 28  1  0
  7 29  1  0
  7 30  1  0
  7 31  1  0
  8 32  1  0
 11 33  1  0
 13 34  1  0
 14 35  1  0
 15 36  1  0
 16 37  1  0
 24 38  1  0
 24 39  1  0
 24 40  1  0
 25 41  1  0
 25 42  1  0
 25 43  1  0
M  CHG  2  18   1  19  -1
M  END
>  <Energy>  (1) 
39.40614347949328

>  <Real charge>  (1) 
0

>  <Mult>  (1) 
1

$$$$
mol_49 494
     RDKit          3D

 43 44  0  0  0  0  0  0  0  0999 V2000
   -0.1786   -4.2936    0.2712 C   0  0  0  0  0  0  0  0  0  0  0  0
    0.1791   -2.9348    0.5313 O   0  0  0  0  0  0  0  0  0  0  0  0
    1.0666   -2.4157   -0.3524 C   0  0  0  0  0  0  0  0  0  0  0  0
    1.5608   -3.0034   -1.3010 O   0  0  0  0  0  0  0  0  0  0  0  0
    1.3365   -1.0016    0.0008 C   0  0  0  0  0  0  0  0  0  0  0  0
    2.5772   -0.4721   -0.1075 C   0  0  0  0  0  0  0  0  0  0  0  0
    3.8055   -1.2451   -0.5191 C   0  0  0  0  0  0  0  0  0  0  0  0
    2.7816    0.8644    0.2065 N   0  0  0  0  0  0  0  0  0  0  0  0
    1.8313    1.6770    0.8068 C   0  0  0  0  0  0  0  0  0  0  0  0
    0.5629    1.2299    0.9435 C   0  0  0  0  0  0  0  0  0  0  0  0
    0.1404   -0.1485    0.4419 C   0  0  0  0  0  0  0  0  0  0  0  0
   -0.8883   -0.0622   -0.6954 C   0  0  0  0  0  0  0  0  0  0  0  0
   -0.5223    0.5598   -1.9082 C   0  0  0  0  0  0  0  0  0  0  0  0
   -1.4089    0.6304   -2.9875 C   0  0  0  0  0  0  0  0  0  0  0  0
   -2.6844    0.0803   -2.8890 C   0  0  0  0  0  0  0  0  0  0  0  0
   -3.0809   -0.5387   -1.7068 C   0  0  0  0  0  0  0  0  0  0  0  0
   -2.1893   -0.6010   -0.6235 C   0  0  0  0  0  0  0  0  0  0  0  0
   -2.6835   -1.2480    0.5828 N   0  0  0  0  0  4  0  0  0  0  0  0
   -2.6904   -0.5802    1.6248 O   0  0  0  0  0  1  0  0  0  0  0  0
   -3.0874   -2.4136    0.4715 O   0  0  0  0  0  0  0  0  0  0  0  0
   -0.4167    2.0053    1.7316 C   0  0  0  0  0  0  0  0  0  0  0  0
   -0.2328    2.3587    2.8861 O   0  0  0  0  0  0  0  0  0  0  0  0
   -1.5038    2.2782    0.9725 O   0  0  0  0  0  0  0  0  0  0  0  0
   -2.5239    2.9989    1.6637 C   0  0  0  0  0  0  0  0  0  0  0  0
    2.3200    3.0241    1.2761 C   0  0  0  0  0  0  0  0  0  0  0  0
    0.7045   -4.9384    0.3174 H   0  0  0  0  0  0  0  0  0  0  0  0
   -0.6715   -4.3783   -0.7023 H   0  0  0  0  0  0  0  0  0  0  0  0
   -0.8818   -4.6127    1.0454 H   0  0  0  0  0  0  0  0  0  0  0  0
    3.7338   -2.3112   -0.2865 H   0  0  0  0  0  0  0  0  0  0  0  0
    4.6888   -0.8780    0.0160 H   0  0  0  0  0  0  0  0  0  0  0  0
    3.9844   -1.1248   -1.5921 H   0  0  0  0  0  0  0  0  0  0  0  0
    3.7449    1.1932    0.2245 H   0  0  0  0  0  0  0  0  0  0  0  0
   -0.2836   -0.6535    1.3161 H   0  0  0  0  0  0  0  0  0  0  0  0
    0.4711    0.9935   -2.0264 H   0  0  0  0  0  0  0  0  0  0  0  0
   -1.0962    1.1133   -3.9111 H   0  0  0  0  0  0  0  0  0  0  0  0
   -3.3669    0.1342   -3.7340 H   0  0  0  0  0  0  0  0  0  0  0  0
   -4.0789   -0.9668   -1.6343 H   0  0  0  0  0  0  0  0  0  0  0  0
   -2.8657    2.4400    2.5406 H   0  0  0  0  0  0  0  0  0  0  0  0
   -3.3703    3.1237    0.9826 H   0  0  0  0  0  0  0  0  0  0  0  0
   -2.1613    3.9903    1.9523 H   0  0  0  0  0  0  0  0  0  0  0  0
    1.5098    3.7275    1.4868 H   0  0  0  0  0  0  0  0  0  0  0  0
    2.9427    3.4892    0.5035 H   0  0  0  0  0  0  0  0  0  0  0  0
    2.9255    2.9103    2.1810 H   0  0  0  0  0  0  0  0  0  0  0  0
  1  2  1  0
  2  3  1  0
  3  4  2  0
  3  5  1  0
  5  6  2  0
  6  7  1  0
  6  8  1  0
  8  9  1  0
  9 10  2  0
 10 11  1  0
 11 12  1  0
 12 13  2  0
 13 14  1  0
 14 15  2  0
 15 16  1  0
 16 17  2  0
 17 18  1  0
 18 19  1  0
 18 20  2  0
 10 21  1  0
 21 22  2  0
 21 23  1  0
 23 24  1  0
  9 25  1  0
 11  5  1  0
 17 12  1  0
  1 26  1  0
  1 27  1  0
  1 28  1  0
  7 29  1  0
  7 30  1  0
  7 31  1  0
  8 32  1  0
 11 33  1  0
 13 34  1  0
 14 35  1  0
 15 36  1  0
 16 37  1  0
 24 38  1  0
 24 39  1  0
 24 40  1  0
 25 41  1  0
 25 42  1  0
 25 43  1  0
M  CHG  2  18   1  19  -1
M  END
>  <Energy>  (2) 
40.244989906194704

>  <Real charge>  (2) 
0

>  <Mult>  (2) 
1

$$$$
