mol_867 95
     RDKit          3D

 38 39  0  0  0  0  0  0  0  0999 V2000
   -1.3204   -2.0136   -2.5940 C   0  0  0  0  0  0  0  0  0  0  0  0
   -1.6403   -0.8794   -1.6718 C   0  0  0  0  0  0  0  0  0  0  0  0
   -0.9737   -0.5128   -0.5564 C   0  0  0  0  0  0  0  0  0  0  0  0
    0.2091   -1.2143   -0.0477 C   0  0  0  0  0  0  0  0  0  0  0  0
    0.1694   -2.4435    0.5094 C   0  0  0  0  0  0  0  0  0  0  0  0
   -1.0338   -3.3045    0.7337 C   0  0  0  0  0  0  0  0  0  0  0  0
    1.5369   -0.5602   -0.0923 C   0  0  0  0  0  0  0  0  0  0  0  0
    2.0396    0.1006    1.0380 C   0  0  0  0  0  0  0  0  0  0  0  0
    3.2842    0.7330    0.9919 C   0  0  0  0  0  0  0  0  0  0  0  0
    4.0211    0.7038   -0.1881 C   0  0  0  0  0  0  0  0  0  0  0  0
    5.2401    1.3085   -0.2781 O   0  0  0  0  0  0  0  0  0  0  0  0
    3.5347    0.0571   -1.3187 C   0  0  0  0  0  0  0  0  0  0  0  0
    2.2906   -0.5741   -1.2728 C   0  0  0  0  0  0  0  0  0  0  0  0
   -1.4779    0.6935    0.1389 C   0  0  0  0  0  0  0  0  0  0  0  0
   -2.2942    0.5659    1.2700 C   0  0  0  0  0  0  0  0  0  0  0  0
   -2.7553    1.7036    1.9346 C   0  0  0  0  0  0  0  0  0  0  0  0
   -2.3972    2.9646    1.4714 C   0  0  0  0  0  0  0  0  0  0  0  0
   -2.8689    4.0481    2.1518 O   0  0  0  0  0  0  0  0  0  0  0  0
   -1.5826    3.1109    0.3527 C   0  0  0  0  0  0  0  0  0  0  0  0
   -1.1218    1.9726   -0.3128 C   0  0  0  0  0  0  0  0  0  0  0  0
   -0.3897   -2.5296   -2.3466 H   0  0  0  0  0  0  0  0  0  0  0  0
   -2.1334   -2.7457   -2.5757 H   0  0  0  0  0  0  0  0  0  0  0  0
   -1.2247   -1.6361   -3.6171 H   0  0  0  0  0  0  0  0  0  0  0  0
   -2.5109   -0.2980   -1.9755 H   0  0  0  0  0  0  0  0  0  0  0  0
    1.1003   -2.8887    0.8608 H   0  0  0  0  0  0  0  0  0  0  0  0
   -1.0879   -3.5880    1.7897 H   0  0  0  0  0  0  0  0  0  0  0  0
   -1.9762   -2.8150    0.4769 H   0  0  0  0  0  0  0  0  0  0  0  0
   -0.9498   -4.2194    0.1393 H   0  0  0  0  0  0  0  0  0  0  0  0
    1.4552    0.1306    1.9551 H   0  0  0  0  0  0  0  0  0  0  0  0
    3.6537    1.2401    1.8771 H   0  0  0  0  0  0  0  0  0  0  0  0
    5.4500    1.7079    0.5819 H   0  0  0  0  0  0  0  0  0  0  0  0
    4.1206    0.0453   -2.2331 H   0  0  0  0  0  0  0  0  0  0  0  0
    1.9116   -1.0754   -2.1597 H   0  0  0  0  0  0  0  0  0  0  0  0
   -2.5728   -0.4184    1.6372 H   0  0  0  0  0  0  0  0  0  0  0  0
   -3.3898    1.6056    2.8106 H   0  0  0  0  0  0  0  0  0  0  0  0
   -2.5462    4.8520    1.7128 H   0  0  0  0  0  0  0  0  0  0  0  0
   -1.2938    4.0910   -0.0123 H   0  0  0  0  0  0  0  0  0  0  0  0
   -0.4756    2.0823   -1.1810 H   0  0  0  0  0  0  0  0  0  0  0  0
  1  2  1  0
  2  3  2  3
  3  4  1  0
  4  5  2  3
  5  6  1  0
  4  7  1  0
  7  8  2  0
  8  9  1  0
  9 10  2  0
 10 11  1  0
 10 12  1  0
 12 13  2  0
  3 14  1  0
 14 15  2  0
 15 16  1  0
 16 17  2  0
 17 18  1  0
 17 19  1  0
 19 20  2  0
 13  7  1  0
 20 14  1  0
  1 21  1  0
  1 22  1  0
  1 23  1  0
  2 24  1  0
  5 25  1  0
  6 26  1  0
  6 27  1  0
  6 28  1  0
  8 29  1  0
  9 30  1  0
 11 31  1  0
 12 32  1  0
 13 33  1  0
 15 34  1  0
 16 35  1  0
 18 36  1  0
 19 37  1  0
 20 38  1  0
M  END
>  <Energy>  (1) 
33.36510496068409

>  <Real charge>  (1) 
0

>  <Mult>  (1) 
1

$$$$
mol_867 335
     RDKit          3D

 38 39  0  0  0  0  0  0  0  0999 V2000
    2.8405   -2.5348    0.6659 C   0  0  0  0  0  0  0  0  0  0  0  0
    1.4369   -2.3361    0.1828 C   0  0  0  0  0  0  0  0  0  0  0  0
    0.8368   -1.1820   -0.1834 C   0  0  0  0  0  0  0  0  0  0  0  0
   -0.5686   -1.1839   -0.6372 C   0  0  0  0  0  0  0  0  0  0  0  0
   -0.9496   -1.9627   -1.6737 C   0  0  0  0  0  0  0  0  0  0  0  0
   -2.3152   -2.0999   -2.2733 C   0  0  0  0  0  0  0  0  0  0  0  0
   -1.5610   -0.3038    0.0189 C   0  0  0  0  0  0  0  0  0  0  0  0
   -1.8379    0.9685   -0.5016 C   0  0  0  0  0  0  0  0  0  0  0  0
   -2.7589    1.8054    0.1323 C   0  0  0  0  0  0  0  0  0  0  0  0
   -3.3978    1.3661    1.2880 C   0  0  0  0  0  0  0  0  0  0  0  0
   -4.3029    2.1509    1.9396 O   0  0  0  0  0  0  0  0  0  0  0  0
   -3.1304    0.1093    1.8191 C   0  0  0  0  0  0  0  0  0  0  0  0
   -2.2090   -0.7268    1.1865 C   0  0  0  0  0  0  0  0  0  0  0  0
    1.5850    0.0915   -0.0925 C   0  0  0  0  0  0  0  0  0  0  0  0
    1.6373    0.8015    1.1155 C   0  0  0  0  0  0  0  0  0  0  0  0
    2.3259    2.0141    1.1924 C   0  0  0  0  0  0  0  0  0  0  0  0
    2.9581    2.5133    0.0575 C   0  0  0  0  0  0  0  0  0  0  0  0
    3.6404    3.6936    0.0874 O   0  0  0  0  0  0  0  0  0  0  0  0
    2.9113    1.8235   -1.1488 C   0  0  0  0  0  0  0  0  0  0  0  0
    2.2220    0.6123   -1.2262 C   0  0  0  0  0  0  0  0  0  0  0  0
    2.8254   -2.9348    1.6845 H   0  0  0  0  0  0  0  0  0  0  0  0
    3.3484   -3.2608    0.0230 H   0  0  0  0  0  0  0  0  0  0  0  0
    3.4399   -1.6214    0.6707 H   0  0  0  0  0  0  0  0  0  0  0  0
    0.8577   -3.2578    0.1376 H   0  0  0  0  0  0  0  0  0  0  0  0
   -0.1960   -2.5796   -2.1622 H   0  0  0  0  0  0  0  0  0  0  0  0
   -3.0840   -1.5180   -1.7595 H   0  0  0  0  0  0  0  0  0  0  0  0
   -2.6216   -3.1504   -2.2466 H   0  0  0  0  0  0  0  0  0  0  0  0
   -2.2911   -1.7793   -3.3195 H   0  0  0  0  0  0  0  0  0  0  0  0
   -1.3280    1.3118   -1.3989 H   0  0  0  0  0  0  0  0  0  0  0  0
   -2.9571    2.7870   -0.2854 H   0  0  0  0  0  0  0  0  0  0  0  0
   -4.3896    2.9879    1.4549 H   0  0  0  0  0  0  0  0  0  0  0  0
   -3.6354   -0.2181    2.7231 H   0  0  0  0  0  0  0  0  0  0  0  0
   -1.9980   -1.7072    1.6058 H   0  0  0  0  0  0  0  0  0  0  0  0
    1.1325    0.4129    1.9970 H   0  0  0  0  0  0  0  0  0  0  0  0
    2.3523    2.5490    2.1360 H   0  0  0  0  0  0  0  0  0  0  0  0
    3.5913    4.0546    0.9877 H   0  0  0  0  0  0  0  0  0  0  0  0
    3.4077    2.2274   -2.0262 H   0  0  0  0  0  0  0  0  0  0  0  0
    2.1828    0.0767   -2.1713 H   0  0  0  0  0  0  0  0  0  0  0  0
  1  2  1  0
  2  3  2  3
  3  4  1  0
  4  5  2  3
  5  6  1  0
  4  7  1  0
  7  8  2  0
  8  9  1  0
  9 10  2  0
 10 11  1  0
 10 12  1  0
 12 13  2  0
  3 14  1  0
 14 15  2  0
 15 16  1  0
 16 17  2  0
 17 18  1  0
 17 19  1  0
 19 20  2  0
 13  7  1  0
 20 14  1  0
  1 21  1  0
  1 22  1  0
  1 23  1  0
  2 24  1  0
  5 25  1  0
  6 26  1  0
  6 27  1  0
  6 28  1  0
  8 29  1  0
  9 30  1  0
 11 31  1  0
 12 32  1  0
 13 33  1  0
 15 34  1  0
 16 35  1  0
 18 36  1  0
 19 37  1  0
 20 38  1  0
M  END
>  <Energy>  (2) 
33.39614667399744

>  <Real charge>  (2) 
0

>  <Mult>  (2) 
1

$$$$
mol_867 506
     RDKit          3D

 38 39  0  0  0  0  0  0  0  0999 V2000
   -2.5865   -2.5543   -0.5832 C   0  0  0  0  0  0  0  0  0  0  0  0
   -2.3343   -1.3475    0.2651 C   0  0  0  0  0  0  0  0  0  0  0  0
   -1.3809   -0.4060    0.0970 C   0  0  0  0  0  0  0  0  0  0  0  0
   -0.4260   -0.4002   -1.0211 C   0  0  0  0  0  0  0  0  0  0  0  0
   -0.8669   -0.2128   -2.2841 C   0  0  0  0  0  0  0  0  0  0  0  0
   -0.0610   -0.1677   -3.5451 C   0  0  0  0  0  0  0  0  0  0  0  0
    1.0211   -0.5505   -0.7571 C   0  0  0  0  0  0  0  0  0  0  0  0
    1.5846   -1.8273   -0.6395 C   0  0  0  0  0  0  0  0  0  0  0  0
    2.9470   -1.9707   -0.3723 C   0  0  0  0  0  0  0  0  0  0  0  0
    3.7412   -0.8399   -0.2179 C   0  0  0  0  0  0  0  0  0  0  0  0
    5.0665   -1.0263    0.0437 O   0  0  0  0  0  0  0  0  0  0  0  0
    3.1973    0.4366   -0.3247 C   0  0  0  0  0  0  0  0  0  0  0  0
    1.8342    0.5801   -0.5930 C   0  0  0  0  0  0  0  0  0  0  0  0
   -1.3223    0.6521    1.1319 C   0  0  0  0  0  0  0  0  0  0  0  0
   -1.8872    1.9098    0.8843 C   0  0  0  0  0  0  0  0  0  0  0  0
   -1.8165    2.9133    1.8520 C   0  0  0  0  0  0  0  0  0  0  0  0
   -1.1790    2.6603    3.0614 C   0  0  0  0  0  0  0  0  0  0  0  0
   -1.1318    3.6697    3.9771 O   0  0  0  0  0  0  0  0  0  0  0  0
   -0.6075    1.4187    3.3229 C   0  0  0  0  0  0  0  0  0  0  0  0
   -0.6789    0.4142    2.3550 C   0  0  0  0  0  0  0  0  0  0  0  0
   -3.5543   -2.4597   -1.0849 H   0  0  0  0  0  0  0  0  0  0  0  0
   -1.8188   -2.7236   -1.3420 H   0  0  0  0  0  0  0  0  0  0  0  0
   -2.6180   -3.4454    0.0520 H   0  0  0  0  0  0  0  0  0  0  0  0
   -3.0069   -1.2635    1.1189 H   0  0  0  0  0  0  0  0  0  0  0  0
   -1.9364   -0.0763   -2.4411 H   0  0  0  0  0  0  0  0  0  0  0  0
   -0.1737    0.8127   -4.0183 H   0  0  0  0  0  0  0  0  0  0  0  0
    1.0057   -0.3488   -3.3936 H   0  0  0  0  0  0  0  0  0  0  0  0
   -0.4308   -0.9264   -4.2420 H   0  0  0  0  0  0  0  0  0  0  0  0
    0.9648   -2.7127   -0.7558 H   0  0  0  0  0  0  0  0  0  0  0  0
    3.3858   -2.9601   -0.2833 H   0  0  0  0  0  0  0  0  0  0  0  0
    5.4907   -0.1559    0.1191 H   0  0  0  0  0  0  0  0  0  0  0  0
    3.8087    1.3242   -0.2001 H   0  0  0  0  0  0  0  0  0  0  0  0
    1.4026    1.5757   -0.6678 H   0  0  0  0  0  0  0  0  0  0  0  0
   -2.3827    2.1117   -0.0619 H   0  0  0  0  0  0  0  0  0  0  0  0
   -2.2557    3.8882    1.6619 H   0  0  0  0  0  0  0  0  0  0  0  0
   -0.6680    3.3474    4.7672 H   0  0  0  0  0  0  0  0  0  0  0  0
   -0.1031    1.2147    4.2616 H   0  0  0  0  0  0  0  0  0  0  0  0
   -0.2229   -0.5539    2.5503 H   0  0  0  0  0  0  0  0  0  0  0  0
  1  2  1  0
  2  3  2  3
  3  4  1  0
  4  5  2  3
  5  6  1  0
  4  7  1  0
  7  8  2  0
  8  9  1  0
  9 10  2  0
 10 11  1  0
 10 12  1  0
 12 13  2  0
  3 14  1  0
 14 15  2  0
 15 16  1  0
 16 17  2  0
 17 18  1  0
 17 19  1  0
 19 20  2  0
 13  7  1  0
 20 14  1  0
  1 21  1  0
  1 22  1  0
  1 23  1  0
  2 24  1  0
  5 25  1  0
  6 26  1  0
  6 27  1  0
  6 28  1  0
  8 29  1  0
  9 30  1  0
 11 31  1  0
 12 32  1  0
 13 33  1  0
 15 34  1  0
 16 35  1  0
 18 36  1  0
 19 37  1  0
 20 38  1  0
M  END
>  <Energy>  (3) 
33.50867178546702

>  <Real charge>  (3) 
0

>  <Mult>  (3) 
1

$$$$
mol_867 431
     RDKit          3D

 38 39  0  0  0  0  0  0  0  0999 V2000
    0.3452   -1.8148   -3.3574 C   0  0  0  0  0  0  0  0  0  0  0  0
   -0.3927   -1.7134   -2.0581 C   0  0  0  0  0  0  0  0  0  0  0  0
   -0.0025   -1.0893   -0.9249 C   0  0  0  0  0  0  0  0  0  0  0  0
   -0.8743   -1.0986    0.2663 C   0  0  0  0  0  0  0  0  0  0  0  0
   -1.2588   -2.2708    0.8176 C   0  0  0  0  0  0  0  0  0  0  0  0
   -2.1298   -2.4859    2.0168 C   0  0  0  0  0  0  0  0  0  0  0  0
   -1.3059    0.1762    0.8808 C   0  0  0  0  0  0  0  0  0  0  0  0
   -2.4384    0.8412    0.3910 C   0  0  0  0  0  0  0  0  0  0  0  0
   -2.8435    2.0537    0.9543 C   0  0  0  0  0  0  0  0  0  0  0  0
   -2.1088    2.5990    2.0031 C   0  0  0  0  0  0  0  0  0  0  0  0
   -2.4679    3.7808    2.5810 O   0  0  0  0  0  0  0  0  0  0  0  0
   -0.9792    1.9551    2.4952 C   0  0  0  0  0  0  0  0  0  0  0  0
   -0.5754    0.7429    1.9338 C   0  0  0  0  0  0  0  0  0  0  0  0
    1.2913   -0.3723   -0.8920 C   0  0  0  0  0  0  0  0  0  0  0  0
    2.4363   -1.0159   -0.4050 C   0  0  0  0  0  0  0  0  0  0  0  0
    3.6546   -0.3366   -0.3545 C   0  0  0  0  0  0  0  0  0  0  0  0
    3.7248    0.9840   -0.7834 C   0  0  0  0  0  0  0  0  0  0  0  0
    4.9340    1.6105   -0.7126 O   0  0  0  0  0  0  0  0  0  0  0  0
    2.5964    1.6411   -1.2645 C   0  0  0  0  0  0  0  0  0  0  0  0
    1.3778    0.9607   -1.3179 C   0  0  0  0  0  0  0  0  0  0  0  0
    1.3305   -1.3430   -3.3441 H   0  0  0  0  0  0  0  0  0  0  0  0
   -0.2433   -1.3446   -4.1514 H   0  0  0  0  0  0  0  0  0  0  0  0
    0.4851   -2.8690   -3.6167 H   0  0  0  0  0  0  0  0  0  0  0  0
   -1.3604   -2.2139   -2.0660 H   0  0  0  0  0  0  0  0  0  0  0  0
   -0.9053   -3.1963    0.3641 H   0  0  0  0  0  0  0  0  0  0  0  0
   -1.5650   -3.0146    2.7910 H   0  0  0  0  0  0  0  0  0  0  0  0
   -2.9877   -3.1063    1.7383 H   0  0  0  0  0  0  0  0  0  0  0  0
   -2.5169   -1.5622    2.4532 H   0  0  0  0  0  0  0  0  0  0  0  0
   -3.0072    0.4135   -0.4311 H   0  0  0  0  0  0  0  0  0  0  0  0
   -3.7243    2.5520    0.5632 H   0  0  0  0  0  0  0  0  0  0  0  0
   -3.2734    4.1051    2.1465 H   0  0  0  0  0  0  0  0  0  0  0  0
   -0.4124    2.3950    3.3104 H   0  0  0  0  0  0  0  0  0  0  0  0
    0.3137    0.2453    2.3137 H   0  0  0  0  0  0  0  0  0  0  0  0
    2.3823   -2.0463   -0.0631 H   0  0  0  0  0  0  0  0  0  0  0  0
    4.5434   -0.8347    0.0214 H   0  0  0  0  0  0  0  0  0  0  0  0
    4.8250    2.5251   -1.0205 H   0  0  0  0  0  0  0  0  0  0  0  0
    2.6415    2.6734   -1.5953 H   0  0  0  0  0  0  0  0  0  0  0  0
    0.4912    1.4738   -1.6831 H   0  0  0  0  0  0  0  0  0  0  0  0
  1  2  1  0
  2  3  2  3
  3  4  1  0
  4  5  2  3
  5  6  1  0
  4  7  1  0
  7  8  2  0
  8  9  1  0
  9 10  2  0
 10 11  1  0
 10 12  1  0
 12 13  2  0
  3 14  1  0
 14 15  2  0
 15 16  1  0
 16 17  2  0
 17 18  1  0
 17 19  1  0
 19 20  2  0
 13  7  1  0
 20 14  1  0
  1 21  1  0
  1 22  1  0
  1 23  1  0
  2 24  1  0
  5 25  1  0
  6 26  1  0
  6 27  1  0
  6 28  1  0
  8 29  1  0
  9 30  1  0
 11 31  1  0
 12 32  1  0
 13 33  1  0
 15 34  1  0
 16 35  1  0
 18 36  1  0
 19 37  1  0
 20 38  1  0
M  END
>  <Energy>  (4) 
33.63643155583509

>  <Real charge>  (4) 
0

>  <Mult>  (4) 
1

$$$$
mol_867 13
     RDKit          3D

 38 39  0  0  0  0  0  0  0  0999 V2000
    1.3526   -3.0006    1.1596 C   0  0  0  0  0  0  0  0  0  0  0  0
    1.5664   -1.8857    0.1849 C   0  0  0  0  0  0  0  0  0  0  0  0
    0.6699   -0.9585   -0.2146 C   0  0  0  0  0  0  0  0  0  0  0  0
   -0.7175   -0.9125    0.2570 C   0  0  0  0  0  0  0  0  0  0  0  0
   -1.6603   -1.8102   -0.1013 C   0  0  0  0  0  0  0  0  0  0  0  0
   -1.5044   -2.9774   -1.0244 C   0  0  0  0  0  0  0  0  0  0  0  0
   -1.1636    0.1801    1.1515 C   0  0  0  0  0  0  0  0  0  0  0  0
   -1.8034    1.3109    0.6259 C   0  0  0  0  0  0  0  0  0  0  0  0
   -2.2103    2.3442    1.4712 C   0  0  0  0  0  0  0  0  0  0  0  0
   -1.9755    2.2481    2.8379 C   0  0  0  0  0  0  0  0  0  0  0  0
   -2.3894    3.2803    3.6271 O   0  0  0  0  0  0  0  0  0  0  0  0
   -1.3370    1.1354    3.3773 C   0  0  0  0  0  0  0  0  0  0  0  0
   -0.9291    0.1012    2.5310 C   0  0  0  0  0  0  0  0  0  0  0  0
    1.1699    0.0686   -1.1571 C   0  0  0  0  0  0  0  0  0  0  0  0
    1.8669    1.1880   -0.6825 C   0  0  0  0  0  0  0  0  0  0  0  0
    2.3248    2.1602   -1.5732 C   0  0  0  0  0  0  0  0  0  0  0  0
    2.0838    2.0144   -2.9344 C   0  0  0  0  0  0  0  0  0  0  0  0
    2.5486    2.9875   -3.7689 O   0  0  0  0  0  0  0  0  0  0  0  0
    1.3890    0.9122   -3.4236 C   0  0  0  0  0  0  0  0  0  0  0  0
    0.9301   -0.0605   -2.5320 C   0  0  0  0  0  0  0  0  0  0  0  0
    1.4736   -3.9628    0.6528 H   0  0  0  0  0  0  0  0  0  0  0  0
    0.3680   -2.9856    1.6328 H   0  0  0  0  0  0  0  0  0  0  0  0
    2.1014   -2.9382    1.9557 H   0  0  0  0  0  0  0  0  0  0  0  0
    2.5783   -1.8418   -0.2181 H   0  0  0  0  0  0  0  0  0  0  0  0
   -2.6682   -1.6968    0.2981 H   0  0  0  0  0  0  0  0  0  0  0  0
   -2.2500   -2.9132   -1.8233 H   0  0  0  0  0  0  0  0  0  0  0  0
   -1.6736   -3.9084   -0.4747 H   0  0  0  0  0  0  0  0  0  0  0  0
   -0.5209   -3.0338   -1.4966 H   0  0  0  0  0  0  0  0  0  0  0  0
   -1.9782    1.3937   -0.4441 H   0  0  0  0  0  0  0  0  0  0  0  0
   -2.7038    3.2215    1.0634 H   0  0  0  0  0  0  0  0  0  0  0  0
   -2.1504    3.0811    4.5469 H   0  0  0  0  0  0  0  0  0  0  0  0
   -1.1475    1.0547    4.4426 H   0  0  0  0  0  0  0  0  0  0  0  0
   -0.4264   -0.7672    2.9494 H   0  0  0  0  0  0  0  0  0  0  0  0
    2.0469    1.3102    0.3830 H   0  0  0  0  0  0  0  0  0  0  0  0
    2.8626    3.0288   -1.2048 H   0  0  0  0  0  0  0  0  0  0  0  0
    2.2987    2.7593   -4.6790 H   0  0  0  0  0  0  0  0  0  0  0  0
    1.1944    0.7932   -4.4844 H   0  0  0  0  0  0  0  0  0  0  0  0
    0.3835   -0.9204   -2.9112 H   0  0  0  0  0  0  0  0  0  0  0  0
  1  2  1  0
  2  3  2  3
  3  4  1  0
  4  5  2  3
  5  6  1  0
  4  7  1  0
  7  8  2  0
  8  9  1  0
  9 10  2  0
 10 11  1  0
 10 12  1  0
 12 13  2  0
  3 14  1  0
 14 15  2  0
 15 16  1  0
 16 17  2  0
 17 18  1  0
 17 19  1  0
 19 20  2  0
 13  7  1  0
 20 14  1  0
  1 21  1  0
  1 22  1  0
  1 23  1  0
  2 24  1  0
  5 25  1  0
  6 26  1  0
  6 27  1  0
  6 28  1  0
  8 29  1  0
  9 30  1  0
 11 31  1  0
 12 32  1  0
 13 33  1  0
 15 34  1  0
 16 35  1  0
 18 36  1  0
 19 37  1  0
 20 38  1  0
M  END
>  <Energy>  (5) 
33.72709594663949

>  <Real charge>  (5) 
0

>  <Mult>  (5) 
1

$$$$
mol_867 472
     RDKit          3D

 38 39  0  0  0  0  0  0  0  0999 V2000
    0.2128   -2.9606   -1.8916 C   0  0  0  0  0  0  0  0  0  0  0  0
    1.0851   -2.0464   -1.0900 C   0  0  0  0  0  0  0  0  0  0  0  0
    0.7018   -1.1517   -0.1541 C   0  0  0  0  0  0  0  0  0  0  0  0
   -0.6933   -0.9591    0.2674 C   0  0  0  0  0  0  0  0  0  0  0  0
   -1.3371   -1.9418    0.9341 C   0  0  0  0  0  0  0  0  0  0  0  0
   -2.7423   -1.9379    1.4507 C   0  0  0  0  0  0  0  0  0  0  0  0
   -1.3766    0.3243   -0.0014 C   0  0  0  0  0  0  0  0  0  0  0  0
   -1.3703    1.3475    0.9560 C   0  0  0  0  0  0  0  0  0  0  0  0
   -2.0049    2.5617    0.6898 C   0  0  0  0  0  0  0  0  0  0  0  0
   -2.6403    2.7528   -0.5317 C   0  0  0  0  0  0  0  0  0  0  0  0
   -3.2478    3.9540   -0.7499 O   0  0  0  0  0  0  0  0  0  0  0  0
   -2.6512    1.7502   -1.4971 C   0  0  0  0  0  0  0  0  0  0  0  0
   -2.0154    0.5351   -1.2310 C   0  0  0  0  0  0  0  0  0  0  0  0
    1.7819   -0.3354    0.4467 C   0  0  0  0  0  0  0  0  0  0  0  0
    2.2972   -0.6703    1.7066 C   0  0  0  0  0  0  0  0  0  0  0  0
    3.3068    0.1029    2.2851 C   0  0  0  0  0  0  0  0  0  0  0  0
    3.7945    1.2125    1.6010 C   0  0  0  0  0  0  0  0  0  0  0  0
    4.7786    1.9950    2.1288 O   0  0  0  0  0  0  0  0  0  0  0  0
    3.2899    1.5612    0.3535 C   0  0  0  0  0  0  0  0  0  0  0  0
    2.2818    0.7884   -0.2249 C   0  0  0  0  0  0  0  0  0  0  0  0
    0.4313   -2.8313   -2.9566 H   0  0  0  0  0  0  0  0  0  0  0  0
    0.4224   -4.0010   -1.6252 H   0  0  0  0  0  0  0  0  0  0  0  0
   -0.8555   -2.7781   -1.7540 H   0  0  0  0  0  0  0  0  0  0  0  0
    2.1452   -2.1284   -1.3311 H   0  0  0  0  0  0  0  0  0  0  0  0
   -0.7965   -2.8656    1.1375 H   0  0  0  0  0  0  0  0  0  0  0  0
   -3.2913   -2.7822    1.0220 H   0  0  0  0  0  0  0  0  0  0  0  0
   -2.7340   -2.0549    2.5389 H   0  0  0  0  0  0  0  0  0  0  0  0
   -3.2970   -1.0269    1.2138 H   0  0  0  0  0  0  0  0  0  0  0  0
   -0.8656    1.2037    1.9082 H   0  0  0  0  0  0  0  0  0  0  0  0
   -1.9987    3.3553    1.4310 H   0  0  0  0  0  0  0  0  0  0  0  0
   -3.6338    3.9475   -1.6408 H   0  0  0  0  0  0  0  0  0  0  0  0
   -3.1422    1.8934   -2.4539 H   0  0  0  0  0  0  0  0  0  0  0  0
   -2.0183   -0.2489   -1.9842 H   0  0  0  0  0  0  0  0  0  0  0  0
    1.9113   -1.5355    2.2403 H   0  0  0  0  0  0  0  0  0  0  0  0
    3.6936   -0.1737    3.2603 H   0  0  0  0  0  0  0  0  0  0  0  0
    5.0218    1.6404    2.9994 H   0  0  0  0  0  0  0  0  0  0  0  0
    3.6754    2.4338   -0.1657 H   0  0  0  0  0  0  0  0  0  0  0  0
    1.8804    1.0704   -1.1953 H   0  0  0  0  0  0  0  0  0  0  0  0
  1  2  1  0
  2  3  2  3
  3  4  1  0
  4  5  2  3
  5  6  1  0
  4  7  1  0
  7  8  2  0
  8  9  1  0
  9 10  2  0
 10 11  1  0
 10 12  1  0
 12 13  2  0
  3 14  1  0
 14 15  2  0
 15 16  1  0
 16 17  2  0
 17 18  1  0
 17 19  1  0
 19 20  2  0
 13  7  1  0
 20 14  1  0
  1 21  1  0
  1 22  1  0
  1 23  1  0
  2 24  1  0
  5 25  1  0
  6 26  1  0
  6 27  1  0
  6 28  1  0
  8 29  1  0
  9 30  1  0
 11 31  1  0
 12 32  1  0
 13 33  1  0
 15 34  1  0
 16 35  1  0
 18 36  1  0
 19 37  1  0
 20 38  1  0
M  END
>  <Energy>  (6) 
33.89486643955188

>  <Real charge>  (6) 
0

>  <Mult>  (6) 
1

$$$$
