mol_955 72
     RDKit          3D

 17 17  0  0  0  0  0  0  0  0999 V2000
   -2.5461   -0.4428   -0.3955 C   0  0  0  0  0  0  0  0  0  0  0  0
   -1.1996    0.1341   -0.0958 C   0  0  0  0  0  0  0  0  0  0  0  0
   -1.0663    1.4225    0.4085 C   0  0  0  0  0  0  0  0  0  0  0  0
    0.1149    1.9910    0.7358 N   0  0  0  0  0  0  0  0  0  0  0  0
    1.2208    1.2355    0.5575 C   0  0  0  0  0  0  0  0  0  0  0  0
    1.2077   -0.0628    0.0610 C   0  0  0  0  0  0  0  0  0  0  0  0
    2.4703   -0.8530   -0.0688 C   0  0  0  0  0  0  0  0  0  0  0  0
   -0.0343   -0.6205   -0.2520 C   0  0  0  0  0  0  0  0  0  0  0  0
   -2.4850   -1.1761   -1.2065 H   0  0  0  0  0  0  0  0  0  0  0  0
   -2.9507   -0.9339    0.4948 H   0  0  0  0  0  0  0  0  0  0  0  0
   -3.2436    0.3381   -0.7162 H   0  0  0  0  0  0  0  0  0  0  0  0
   -1.9339    2.0562    0.5730 H   0  0  0  0  0  0  0  0  0  0  0  0
    2.1509    1.7221    0.8391 H   0  0  0  0  0  0  0  0  0  0  0  0
    2.3964   -1.5753   -0.8886 H   0  0  0  0  0  0  0  0  0  0  0  0
    2.6721   -1.3938    0.8610 H   0  0  0  0  0  0  0  0  0  0  0  0
    3.3205   -0.1987   -0.2887 H   0  0  0  0  0  0  0  0  0  0  0  0
   -0.0941   -1.6428   -0.6185 H   0  0  0  0  0  0  0  0  0  0  0  0
  1  2  1  0
  2  3  2  0
  3  4  1  0
  4  5  2  0
  5  6  1  0
  6  7  1  0
  6  8  2  0
  8  2  1  0
  1  9  1  0
  1 10  1  0
  1 11  1  0
  3 12  1  0
  5 13  1  0
  7 14  1  0
  7 15  1  0
  7 16  1  0
  8 17  1  0
M  END
>  <Energy>  (1) 
20.624745606035976

>  <Real charge>  (1) 
0

>  <Mult>  (1) 
1

$$$$
