mol_515 176
     RDKit          3D

 29 30  0  0  0  0  0  0  0  0999 V2000
    3.9841   -1.8065   -0.1459 C   0  0  0  0  0  0  0  0  0  0  0  0
    3.0593   -0.9176   -0.7927 N   0  0  0  0  0  0  0  0  0  0  0  0
    2.2036   -0.1249   -0.0786 C   0  0  0  0  0  0  0  0  0  0  0  0
    2.2222    0.0002    1.1382 O   0  0  0  0  0  0  0  0  0  0  0  0
    1.3137    0.4787   -0.9501 O   0  0  0  0  0  0  0  0  0  0  0  0
    0.3573    1.2915   -0.3262 C   0  0  0  0  0  0  0  0  0  0  0  0
    0.5961    2.6691   -0.3472 C   0  0  0  0  0  0  0  0  0  0  0  0
   -0.3356    3.5366    0.2149 C   0  0  0  0  0  0  0  0  0  0  0  0
   -1.5003    3.0262    0.7835 C   0  0  0  0  0  0  0  0  0  0  0  0
   -1.7390    1.6475    0.7846 C   0  0  0  0  0  0  0  0  0  0  0  0
   -0.8203    0.7483    0.2147 C   0  0  0  0  0  0  0  0  0  0  0  0
   -1.0687   -0.7463    0.2307 C   0  0  0  0  0  0  0  0  0  0  0  0
   -0.8867   -1.3067   -1.0834 O   0  0  0  0  0  0  0  0  0  0  0  0
   -2.2043   -1.6185   -1.5253 C   0  0  0  0  0  0  0  0  0  0  0  0
   -2.9047   -1.9969   -0.2522 C   0  0  0  0  0  0  0  0  0  0  0  0
   -2.3938   -1.0665    0.6981 O   0  0  0  0  0  0  0  0  0  0  0  0
    4.7597   -2.0844   -0.8631 H   0  0  0  0  0  0  0  0  0  0  0  0
    3.4427   -2.6993    0.1779 H   0  0  0  0  0  0  0  0  0  0  0  0
    4.4351   -1.3207    0.7235 H   0  0  0  0  0  0  0  0  0  0  0  0
    2.8078   -1.0621   -1.7611 H   0  0  0  0  0  0  0  0  0  0  0  0
    1.5056    3.0603   -0.7931 H   0  0  0  0  0  0  0  0  0  0  0  0
   -0.1535    4.6078    0.2133 H   0  0  0  0  0  0  0  0  0  0  0  0
   -2.2270    3.7001    1.2306 H   0  0  0  0  0  0  0  0  0  0  0  0
   -2.6558    1.2793    1.2416 H   0  0  0  0  0  0  0  0  0  0  0  0
   -0.3550   -1.2237    0.9111 H   0  0  0  0  0  0  0  0  0  0  0  0
   -2.6386   -0.7194   -1.9760 H   0  0  0  0  0  0  0  0  0  0  0  0
   -2.1854   -2.4217   -2.2658 H   0  0  0  0  0  0  0  0  0  0  0  0
   -3.9932   -1.9267   -0.3173 H   0  0  0  0  0  0  0  0  0  0  0  0
   -2.6253   -3.0037    0.0765 H   0  0  0  0  0  0  0  0  0  0  0  0
  1  2  1  0
  2  3  1  0
  3  4  2  0
  3  5  1  0
  5  6  1  0
  6  7  2  0
  7  8  1  0
  8  9  2  0
  9 10  1  0
 10 11  2  0
 11 12  1  0
 12 13  1  0
 13 14  1  0
 14 15  1  0
 15 16  1  0
 11  6  1  0
 16 12  1  0
  1 17  1  0
  1 18  1  0
  1 19  1  0
  2 20  1  0
  7 21  1  0
  8 22  1  0
  9 23  1  0
 10 24  1  0
 12 25  1  0
 14 26  1  0
 14 27  1  0
 15 28  1  0
 15 29  1  0
M  END
>  <Energy>  (1) 
-5.552841042054974

>  <Real charge>  (1) 
0

>  <Mult>  (1) 
1

$$$$
mol_515 45
     RDKit          3D

 29 30  0  0  0  0  0  0  0  0999 V2000
    3.7059   -2.0663    0.8052 C   0  0  0  0  0  0  0  0  0  0  0  0
    2.7904   -1.0829    1.3136 N   0  0  0  0  0  0  0  0  0  0  0  0
    2.1303   -0.2231    0.4769 C   0  0  0  0  0  0  0  0  0  0  0  0
    2.3632   -0.1045   -0.7186 O   0  0  0  0  0  0  0  0  0  0  0  0
    1.1740    0.4700    1.2048 O   0  0  0  0  0  0  0  0  0  0  0  0
    0.3728    1.3314    0.4413 C   0  0  0  0  0  0  0  0  0  0  0  0
    0.9260    2.5260   -0.0306 C   0  0  0  0  0  0  0  0  0  0  0  0
    0.1289    3.4161   -0.7446 C   0  0  0  0  0  0  0  0  0  0  0  0
   -1.2142    3.1188   -0.9664 C   0  0  0  0  0  0  0  0  0  0  0  0
   -1.7647    1.9316   -0.4718 C   0  0  0  0  0  0  0  0  0  0  0  0
   -0.9807    1.0120    0.2460 C   0  0  0  0  0  0  0  0  0  0  0  0
   -1.5705   -0.2604    0.8194 C   0  0  0  0  0  0  0  0  0  0  0  0
   -0.8330   -1.4111    0.3726 O   0  0  0  0  0  0  0  0  0  0  0  0
   -1.6691   -2.0027   -0.6169 C   0  0  0  0  0  0  0  0  0  0  0  0
   -3.0486   -1.7349   -0.0855 C   0  0  0  0  0  0  0  0  0  0  0  0
   -2.9559   -0.4209    0.4620 O   0  0  0  0  0  0  0  0  0  0  0  0
    4.3440   -1.6285    0.0329 H   0  0  0  0  0  0  0  0  0  0  0  0
    4.3182   -2.4328    1.6322 H   0  0  0  0  0  0  0  0  0  0  0  0
    3.1313   -2.8913    0.3759 H   0  0  0  0  0  0  0  0  0  0  0  0
    2.3657   -1.2101    2.2212 H   0  0  0  0  0  0  0  0  0  0  0  0
    1.9726    2.7552    0.1469 H   0  0  0  0  0  0  0  0  0  0  0  0
    0.5537    4.3400   -1.1276 H   0  0  0  0  0  0  0  0  0  0  0  0
   -1.8390    3.8135   -1.5223 H   0  0  0  0  0  0  0  0  0  0  0  0
   -2.8200    1.7335   -0.6497 H   0  0  0  0  0  0  0  0  0  0  0  0
   -1.5124   -0.2174    1.9131 H   0  0  0  0  0  0  0  0  0  0  0  0
   -1.4933   -1.4931   -1.5706 H   0  0  0  0  0  0  0  0  0  0  0  0
   -1.4461   -3.0666   -0.7284 H   0  0  0  0  0  0  0  0  0  0  0  0
   -3.3034   -2.4204    0.7299 H   0  0  0  0  0  0  0  0  0  0  0  0
   -3.8262   -1.7811   -0.8518 H   0  0  0  0  0  0  0  0  0  0  0  0
  1  2  1  0
  2  3  1  0
  3  4  2  0
  3  5  1  0
  5  6  1  0
  6  7  2  0
  7  8  1  0
  8  9  2  0
  9 10  1  0
 10 11  2  0
 11 12  1  0
 12 13  1  0
 13 14  1  0
 14 15  1  0
 15 16  1  0
 11  6  1  0
 16 12  1  0
  1 17  1  0
  1 18  1  0
  1 19  1  0
  2 20  1  0
  7 21  1  0
  8 22  1  0
  9 23  1  0
 10 24  1  0
 12 25  1  0
 14 26  1  0
 14 27  1  0
 15 28  1  0
 15 29  1  0
M  END
>  <Energy>  (2) 
-5.547910843571708

>  <Real charge>  (2) 
0

>  <Mult>  (2) 
1

$$$$
mol_515 204
     RDKit          3D

 29 30  0  0  0  0  0  0  0  0999 V2000
    3.8456    2.1764   -0.2559 C   0  0  0  0  0  0  0  0  0  0  0  0
    2.8697    1.4168    0.4746 N   0  0  0  0  0  0  0  0  0  0  0  0
    2.1200    0.4342   -0.1118 C   0  0  0  0  0  0  0  0  0  0  0  0
    2.1642    0.1453   -1.3000 O   0  0  0  0  0  0  0  0  0  0  0  0
    1.3421   -0.1808    0.8587 O   0  0  0  0  0  0  0  0  0  0  0  0
    0.4930   -1.1897    0.3794 C   0  0  0  0  0  0  0  0  0  0  0  0
    1.0488   -2.4090   -0.0209 C   0  0  0  0  0  0  0  0  0  0  0  0
    0.2128   -3.4368   -0.4480 C   0  0  0  0  0  0  0  0  0  0  0  0
   -1.1679   -3.2489   -0.4563 C   0  0  0  0  0  0  0  0  0  0  0  0
   -1.7167   -2.0336   -0.0336 C   0  0  0  0  0  0  0  0  0  0  0  0
   -0.8951   -0.9784    0.3983 C   0  0  0  0  0  0  0  0  0  0  0  0
   -1.4715    0.3343    0.8861 C   0  0  0  0  0  0  0  0  0  0  0  0
   -2.9109    0.3373    0.8565 O   0  0  0  0  0  0  0  0  0  0  0  0
   -3.2628    1.5330    0.1628 C   0  0  0  0  0  0  0  0  0  0  0  0
   -2.0835    1.7897   -0.7322 C   0  0  0  0  0  0  0  0  0  0  0  0
   -0.9799    1.4257    0.0906 O   0  0  0  0  0  0  0  0  0  0  0  0
    4.7821    1.6131   -0.2735 H   0  0  0  0  0  0  0  0  0  0  0  0
    3.5082    2.3535   -1.2805 H   0  0  0  0  0  0  0  0  0  0  0  0
    3.9992    3.1292    0.2560 H   0  0  0  0  0  0  0  0  0  0  0  0
    2.8006    1.4974    1.4788 H   0  0  0  0  0  0  0  0  0  0  0  0
    2.1252   -2.5526   -0.0116 H   0  0  0  0  0  0  0  0  0  0  0  0
    0.6366   -4.3824   -0.7750 H   0  0  0  0  0  0  0  0  0  0  0  0
   -1.8225   -4.0506   -0.7891 H   0  0  0  0  0  0  0  0  0  0  0  0
   -2.7990   -1.9202   -0.0404 H   0  0  0  0  0  0  0  0  0  0  0  0
   -1.1621    0.4972    1.9250 H   0  0  0  0  0  0  0  0  0  0  0  0
   -4.2014    1.4029   -0.3816 H   0  0  0  0  0  0  0  0  0  0  0  0
   -3.3828    2.3291    0.9055 H   0  0  0  0  0  0  0  0  0  0  0  0
   -2.0016    2.8307   -1.0541 H   0  0  0  0  0  0  0  0  0  0  0  0
   -2.0905    1.1372   -1.6121 H   0  0  0  0  0  0  0  0  0  0  0  0
  1  2  1  0
  2  3  1  0
  3  4  2  0
  3  5  1  0
  5  6  1  0
  6  7  2  0
  7  8  1  0
  8  9  2  0
  9 10  1  0
 10 11  2  0
 11 12  1  0
 12 13  1  0
 13 14  1  0
 14 15  1  0
 15 16  1  0
 11  6  1  0
 16 12  1  0
  1 17  1  0
  1 18  1  0
  1 19  1  0
  2 20  1  0
  7 21  1  0
  8 22  1  0
  9 23  1  0
 10 24  1  0
 12 25  1  0
 14 26  1  0
 14 27  1  0
 15 28  1  0
 15 29  1  0
M  END
>  <Energy>  (3) 
-5.219353041704767

>  <Real charge>  (3) 
0

>  <Mult>  (3) 
1

$$$$
mol_515 27
     RDKit          3D

 29 30  0  0  0  0  0  0  0  0999 V2000
    3.9119   -2.0683    0.5188 C   0  0  0  0  0  0  0  0  0  0  0  0
    2.7340   -1.4146    1.0174 N   0  0  0  0  0  0  0  0  0  0  0  0
    2.1113   -0.4076    0.3344 C   0  0  0  0  0  0  0  0  0  0  0  0
    2.4290   -0.0247   -0.7832 O   0  0  0  0  0  0  0  0  0  0  0  0
    1.0814    0.0962    1.1102 O   0  0  0  0  0  0  0  0  0  0  0  0
    0.3634    1.1369    0.5053 C   0  0  0  0  0  0  0  0  0  0  0  0
    0.7047    2.4390    0.8844 C   0  0  0  0  0  0  0  0  0  0  0  0
    0.0041    3.5163    0.3504 C   0  0  0  0  0  0  0  0  0  0  0  0
   -1.0351    3.2876   -0.5485 C   0  0  0  0  0  0  0  0  0  0  0  0
   -1.3812    1.9806   -0.9088 C   0  0  0  0  0  0  0  0  0  0  0  0
   -0.6987    0.8725   -0.3758 C   0  0  0  0  0  0  0  0  0  0  0  0
   -1.0597   -0.5429   -0.7757 C   0  0  0  0  0  0  0  0  0  0  0  0
   -2.2453   -0.5954   -1.5947 O   0  0  0  0  0  0  0  0  0  0  0  0
   -3.2369   -1.1876   -0.7599 C   0  0  0  0  0  0  0  0  0  0  0  0
   -2.4394   -2.1073    0.1183 C   0  0  0  0  0  0  0  0  0  0  0  0
   -1.2599   -1.3587    0.3928 O   0  0  0  0  0  0  0  0  0  0  0  0
    3.9811   -3.0575    0.9770 H   0  0  0  0  0  0  0  0  0  0  0  0
    4.7845   -1.4718    0.7974 H   0  0  0  0  0  0  0  0  0  0  0  0
    3.8687   -2.1629   -0.5694 H   0  0  0  0  0  0  0  0  0  0  0  0
    2.4195   -1.5718    1.9648 H   0  0  0  0  0  0  0  0  0  0  0  0
    1.5160    2.6103    1.5855 H   0  0  0  0  0  0  0  0  0  0  0  0
    0.2694    4.5320    0.6304 H   0  0  0  0  0  0  0  0  0  0  0  0
   -1.5792    4.1269   -0.9747 H   0  0  0  0  0  0  0  0  0  0  0  0
   -2.1934    1.8353   -1.6186 H   0  0  0  0  0  0  0  0  0  0  0  0
   -0.2428   -0.9700   -1.3680 H   0  0  0  0  0  0  0  0  0  0  0  0
   -3.9903   -1.7042   -1.3596 H   0  0  0  0  0  0  0  0  0  0  0  0
   -3.7179   -0.3916   -0.1811 H   0  0  0  0  0  0  0  0  0  0  0  0
   -2.1469   -3.0192   -0.4135 H   0  0  0  0  0  0  0  0  0  0  0  0
   -2.9524   -2.3775    1.0445 H   0  0  0  0  0  0  0  0  0  0  0  0
  1  2  1  0
  2  3  1  0
  3  4  2  0
  3  5  1  0
  5  6  1  0
  6  7  2  0
  7  8  1  0
  8  9  2  0
  9 10  1  0
 10 11  2  0
 11 12  1  0
 12 13  1  0
 13 14  1  0
 14 15  1  0
 15 16  1  0
 11  6  1  0
 16 12  1  0
  1 17  1  0
  1 18  1  0
  1 19  1  0
  2 20  1  0
  7 21  1  0
  8 22  1  0
  9 23  1  0
 10 24  1  0
 12 25  1  0
 14 26  1  0
 14 27  1  0
 15 28  1  0
 15 29  1  0
M  END
>  <Energy>  (4) 
-5.142864840823501

>  <Real charge>  (4) 
0

>  <Mult>  (4) 
1

$$$$
mol_515 114
     RDKit          3D

 29 30  0  0  0  0  0  0  0  0999 V2000
    4.3600    0.7571   -0.2249 C   0  0  0  0  0  0  0  0  0  0  0  0
    3.1692    0.3953    0.4920 N   0  0  0  0  0  0  0  0  0  0  0  0
    2.1507   -0.3079   -0.0910 C   0  0  0  0  0  0  0  0  0  0  0  0
    2.1259   -0.6438   -1.2673 O   0  0  0  0  0  0  0  0  0  0  0  0
    1.1903   -0.5920    0.8692 O   0  0  0  0  0  0  0  0  0  0  0  0
    0.0622   -1.2818    0.3977 C   0  0  0  0  0  0  0  0  0  0  0  0
    0.1950   -2.6217    0.0191 C   0  0  0  0  0  0  0  0  0  0  0  0
   -0.9283   -3.3340   -0.3912 C   0  0  0  0  0  0  0  0  0  0  0  0
   -2.1759   -2.7137   -0.4019 C   0  0  0  0  0  0  0  0  0  0  0  0
   -2.3035   -1.3798   -0.0004 C   0  0  0  0  0  0  0  0  0  0  0  0
   -1.1844   -0.6346    0.4093 C   0  0  0  0  0  0  0  0  0  0  0  0
   -1.3090    0.7992    0.8800 C   0  0  0  0  0  0  0  0  0  0  0  0
   -0.4587    1.6575    0.1021 O   0  0  0  0  0  0  0  0  0  0  0  0
   -1.2685    2.7810   -0.2277 C   0  0  0  0  0  0  0  0  0  0  0  0
   -2.6575    2.2124   -0.2708 C   0  0  0  0  0  0  0  0  0  0  0  0
   -2.6632    1.2859    0.8135 O   0  0  0  0  0  0  0  0  0  0  0  0
    5.0552   -0.0857   -0.1918 H   0  0  0  0  0  0  0  0  0  0  0  0
    4.8101    1.6244    0.2634 H   0  0  0  0  0  0  0  0  0  0  0  0
    4.1259    0.9948   -1.2660 H   0  0  0  0  0  0  0  0  0  0  0  0
    3.1069    0.5330    1.4903 H   0  0  0  0  0  0  0  0  0  0  0  0
    1.1680   -3.1039    0.0332 H   0  0  0  0  0  0  0  0  0  0  0  0
   -0.8318   -4.3709   -0.7012 H   0  0  0  0  0  0  0  0  0  0  0  0
   -3.0551   -3.2690   -0.7192 H   0  0  0  0  0  0  0  0  0  0  0  0
   -3.2933   -0.9276   -0.0057 H   0  0  0  0  0  0  0  0  0  0  0  0
   -0.9988    0.8566    1.9299 H   0  0  0  0  0  0  0  0  0  0  0  0
   -0.9506    3.2248   -1.1742 H   0  0  0  0  0  0  0  0  0  0  0  0
   -1.1624    3.5211    0.5728 H   0  0  0  0  0  0  0  0  0  0  0  0
   -2.8392    1.6581   -1.1981 H   0  0  0  0  0  0  0  0  0  0  0  0
   -3.4391    2.9650   -0.1412 H   0  0  0  0  0  0  0  0  0  0  0  0
  1  2  1  0
  2  3  1  0
  3  4  2  0
  3  5  1  0
  5  6  1  0
  6  7  2  0
  7  8  1  0
  8  9  2  0
  9 10  1  0
 10 11  2  0
 11 12  1  0
 12 13  1  0
 13 14  1  0
 14 15  1  0
 15 16  1  0
 11  6  1  0
 16 12  1  0
  1 17  1  0
  1 18  1  0
  1 19  1  0
  2 20  1  0
  7 21  1  0
  8 22  1  0
  9 23  1  0
 10 24  1  0
 12 25  1  0
 14 26  1  0
 14 27  1  0
 15 28  1  0
 15 29  1  0
M  END
>  <Energy>  (5) 
-4.818067639710224

>  <Real charge>  (5) 
0

>  <Mult>  (5) 
1

$$$$
