mol_283 413
     RDKit          3D

 31 31  0  0  0  0  0  0  0  0999 V2000
   -0.8011    0.4126    2.2718 O   0  0  0  0  0  0  0  0  0  0  0  0
   -0.9134    0.6565    1.0717 C   0  0  0  0  0  0  0  0  0  0  0  0
   -1.8805    1.5199    0.6496 N   0  0  0  0  0  0  0  0  0  0  0  0
   -1.7747    2.2877   -0.4636 C   0  0  0  0  0  0  0  0  0  0  0  0
   -2.5169    3.2443   -0.6574 O   0  0  0  0  0  0  0  0  0  0  0  0
   -0.8084    1.9460   -1.3520 N   0  0  0  0  0  0  0  0  0  0  0  0
   -0.1707    0.7409   -1.3549 C   0  0  0  0  0  0  0  0  0  0  0  0
    0.2593    0.2858   -2.4133 O   0  0  0  0  0  0  0  0  0  0  0  0
   -0.0231    0.0297   -0.0060 C   0  0  0  0  0  0  0  0  0  0  0  0
   -0.4685   -1.4696   -0.2144 C   0  0  0  0  0  0  0  0  0  0  0  0
   -0.2107   -2.3890    0.9889 C   0  0  0  0  0  0  0  0  0  0  0  0
   -1.9479   -1.6073   -0.6196 C   0  0  0  0  0  0  0  0  0  0  0  0
    1.4721    0.1759    0.4765 C   0  0  0  0  0  0  0  0  0  0  0  0
    2.5018   -0.5642   -0.3905 C   0  0  0  0  0  0  0  0  0  0  0  0
    1.9201    1.6431    0.6123 C   0  0  0  0  0  0  0  0  0  0  0  0
   -2.4757    1.9020    1.3723 H   0  0  0  0  0  0  0  0  0  0  0  0
   -0.8717    2.4129   -2.2468 H   0  0  0  0  0  0  0  0  0  0  0  0
    0.1087   -1.8840   -1.0518 H   0  0  0  0  0  0  0  0  0  0  0  0
   -0.8129   -2.1055    1.8569 H   0  0  0  0  0  0  0  0  0  0  0  0
   -0.4735   -3.4231    0.7376 H   0  0  0  0  0  0  0  0  0  0  0  0
    0.8407   -2.3943    1.2864 H   0  0  0  0  0  0  0  0  0  0  0  0
   -2.1806   -2.6507   -0.8610 H   0  0  0  0  0  0  0  0  0  0  0  0
   -2.1829   -1.0121   -1.5069 H   0  0  0  0  0  0  0  0  0  0  0  0
   -2.6206   -1.3012    0.1880 H   0  0  0  0  0  0  0  0  0  0  0  0
    1.5489   -0.2527    1.4848 H   0  0  0  0  0  0  0  0  0  0  0  0
    2.5611   -0.1480   -1.4003 H   0  0  0  0  0  0  0  0  0  0  0  0
    3.5005   -0.4789    0.0531 H   0  0  0  0  0  0  0  0  0  0  0  0
    2.2826   -1.6317   -0.4706 H   0  0  0  0  0  0  0  0  0  0  0  0
    1.2510    2.2133    1.2635 H   0  0  0  0  0  0  0  0  0  0  0  0
    2.9215    1.6957    1.0545 H   0  0  0  0  0  0  0  0  0  0  0  0
    1.9655    2.1457   -0.3591 H   0  0  0  0  0  0  0  0  0  0  0  0
  1  2  2  0
  2  3  1  0
  3  4  1  0
  4  5  2  0
  4  6  1  0
  6  7  1  0
  7  8  2  0
  7  9  1  0
  9 10  1  0
 10 11  1  0
 10 12  1  0
  9 13  1  0
 13 14  1  0
 13 15  1  0
  9  2  1  0
  3 16  1  0
  6 17  1  0
 10 18  1  0
 11 19  1  0
 11 20  1  0
 11 21  1  0
 12 22  1  0
 12 23  1  0
 12 24  1  0
 13 25  1  0
 14 26  1  0
 14 27  1  0
 14 28  1  0
 15 29  1  0
 15 30  1  0
 15 31  1  0
M  END
>  <Energy>  (1) 
-114.01222150084746

>  <Real charge>  (1) 
0

>  <Mult>  (1) 
1

$$$$
