mol_1061 105
     RDKit          3D

 24 23  0  0  0  0  0  0  0  0999 V2000
   -3.1101   -1.2847   -0.7209 C   0  0  0  0  0  0  0  0  0  0  0  0
   -2.5168   -0.5218    0.3757 N   0  0  0  0  0  0  0  0  0  0  0  0
   -2.9809   -0.9213    1.7027 C   0  0  0  0  0  0  0  0  0  0  0  0
   -1.6252    0.5455    0.1958 C   0  0  0  0  0  0  0  0  0  0  0  0
   -1.2797    1.7238    1.3518 S   0  0  0  0  0  0  0  0  0  0  0  0
   -0.8143    0.6751   -1.3768 S   0  0  0  0  0  0  0  0  0  0  0  0
    0.3982   -0.9987   -1.3618 S   0  0  0  0  0  0  0  0  0  0  0  0
    1.6658   -0.5140   -0.2192 C   0  0  0  0  0  0  0  0  0  0  0  0
    1.7606   -1.3498    1.2425 S   0  0  0  0  0  0  0  0  0  0  0  0
    2.5222    0.5259   -0.6089 N   0  0  0  0  0  0  0  0  0  0  0  0
    2.6983    0.9645   -1.9921 C   0  0  0  0  0  0  0  0  0  0  0  0
    3.3713    1.2249    0.3535 C   0  0  0  0  0  0  0  0  0  0  0  0
   -3.0222   -0.7809   -1.6845 H   0  0  0  0  0  0  0  0  0  0  0  0
   -2.6250   -2.2639   -0.7675 H   0  0  0  0  0  0  0  0  0  0  0  0
   -4.1774   -1.4228   -0.5185 H   0  0  0  0  0  0  0  0  0  0  0  0
   -2.3029   -0.5991    2.4955 H   0  0  0  0  0  0  0  0  0  0  0  0
   -3.9723   -0.4896    1.8690 H   0  0  0  0  0  0  0  0  0  0  0  0
   -3.0483   -2.0132    1.7442 H   0  0  0  0  0  0  0  0  0  0  0  0
    2.3263    0.2397   -2.7176 H   0  0  0  0  0  0  0  0  0  0  0  0
    2.1833    1.9204   -2.1235 H   0  0  0  0  0  0  0  0  0  0  0  0
    3.7672    1.1038   -2.1852 H   0  0  0  0  0  0  0  0  0  0  0  0
    2.9987    1.1402    1.3763 H   0  0  0  0  0  0  0  0  0  0  0  0
    4.3807    0.8072    0.2944 H   0  0  0  0  0  0  0  0  0  0  0  0
    3.4024    2.2886    0.0965 H   0  0  0  0  0  0  0  0  0  0  0  0
  1  2  1  0
  2  3  1  0
  2  4  1  0
  4  5  2  0
  4  6  1  0
  6  7  1  0
  7  8  1  0
  8  9  2  0
  8 10  1  0
 10 11  1  0
 10 12  1  0
  1 13  1  0
  1 14  1  0
  1 15  1  0
  3 16  1  0
  3 17  1  0
  3 18  1  0
 11 19  1  0
 11 20  1  0
 11 21  1  0
 12 22  1  0
 12 23  1  0
 12 24  1  0
M  END
>  <Energy>  (1) 
-10.432583906842995

>  <Real charge>  (1) 
0

>  <Mult>  (1) 
1

$$$$
mol_1061 86
     RDKit          3D

 24 23  0  0  0  0  0  0  0  0999 V2000
   -1.9377    1.2381    1.0766 C   0  0  0  0  0  0  0  0  0  0  0  0
   -1.7492    0.3567   -0.0742 N   0  0  0  0  0  0  0  0  0  0  0  0
   -2.1071   -1.0386    0.1867 C   0  0  0  0  0  0  0  0  0  0  0  0
   -1.3642    0.8510   -1.3323 C   0  0  0  0  0  0  0  0  0  0  0  0
   -1.3313    2.4838   -1.7572 S   0  0  0  0  0  0  0  0  0  0  0  0
   -0.8988   -0.3567   -2.5443 S   0  0  0  0  0  0  0  0  0  0  0  0
    1.1623   -0.2664   -2.4531 S   0  0  0  0  0  0  0  0  0  0  0  0
    1.4940   -1.1579   -0.9566 C   0  0  0  0  0  0  0  0  0  0  0  0
    1.4841   -2.8449   -0.9961 S   0  0  0  0  0  0  0  0  0  0  0  0
    1.7605   -0.3834    0.1855 N   0  0  0  0  0  0  0  0  0  0  0  0
    1.8262   -0.9746    1.5207 C   0  0  0  0  0  0  0  0  0  0  0  0
    2.1071    1.0385    0.1523 C   0  0  0  0  0  0  0  0  0  0  0  0
   -3.0021    1.4758    1.1623 H   0  0  0  0  0  0  0  0  0  0  0  0
   -1.6060    0.7204    1.9825 H   0  0  0  0  0  0  0  0  0  0  0  0
   -1.3620    2.1619    0.9934 H   0  0  0  0  0  0  0  0  0  0  0  0
   -1.3237   -1.4870    0.8038 H   0  0  0  0  0  0  0  0  0  0  0  0
   -3.0523   -1.0600    0.7394 H   0  0  0  0  0  0  0  0  0  0  0  0
   -2.2455   -1.6318   -0.7170 H   0  0  0  0  0  0  0  0  0  0  0  0
    1.2509   -1.8992    1.5965 H   0  0  0  0  0  0  0  0  0  0  0  0
    1.4139   -0.2664    2.2468 H   0  0  0  0  0  0  0  0  0  0  0  0
    2.8745   -1.1741    1.7619 H   0  0  0  0  0  0  0  0  0  0  0  0
    1.2726    1.6078    0.5707 H   0  0  0  0  0  0  0  0  0  0  0  0
    2.9943    1.1971    0.7746 H   0  0  0  0  0  0  0  0  0  0  0  0
    2.3395    1.4097   -0.8456 H   0  0  0  0  0  0  0  0  0  0  0  0
  1  2  1  0
  2  3  1  0
  2  4  1  0
  4  5  2  0
  4  6  1  0
  6  7  1  0
  7  8  1  0
  8  9  2  0
  8 10  1  0
 10 11  1  0
 10 12  1  0
  1 13  1  0
  1 14  1  0
  1 15  1  0
  3 16  1  0
  3 17  1  0
  3 18  1  0
 11 19  1  0
 11 20  1  0
 11 21  1  0
 12 22  1  0
 12 23  1  0
 12 24  1  0
M  END
>  <Energy>  (2) 
-10.10189846188904

>  <Real charge>  (2) 
0

>  <Mult>  (2) 
1

$$$$
mol_1061 205
     RDKit          3D

 24 23  0  0  0  0  0  0  0  0999 V2000
    1.9615   -0.3677    0.2156 C   0  0  0  0  0  0  0  0  0  0  0  0
    1.9804    1.0191   -0.2457 N   0  0  0  0  0  0  0  0  0  0  0  0
    2.6462    1.9439    0.6701 C   0  0  0  0  0  0  0  0  0  0  0  0
    1.4587    1.4476   -1.4760 C   0  0  0  0  0  0  0  0  0  0  0  0
    1.8460    2.9031   -2.2343 S   0  0  0  0  0  0  0  0  0  0  0  0
    0.3308    0.3372   -2.2779 S   0  0  0  0  0  0  0  0  0  0  0  0
   -1.4900    1.1646   -1.7594 S   0  0  0  0  0  0  0  0  0  0  0  0
   -1.7166    0.5329   -0.1187 C   0  0  0  0  0  0  0  0  0  0  0  0
   -1.6201    1.6197    1.1671 S   0  0  0  0  0  0  0  0  0  0  0  0
   -1.9756   -0.8423    0.0092 N   0  0  0  0  0  0  0  0  0  0  0  0
   -2.4218   -1.6936   -1.0940 C   0  0  0  0  0  0  0  0  0  0  0  0
   -1.9397   -1.5182    1.3046 C   0  0  0  0  0  0  0  0  0  0  0  0
    1.7730   -1.0821   -0.5869 H   0  0  0  0  0  0  0  0  0  0  0  0
    2.9383   -0.6098    0.6472 H   0  0  0  0  0  0  0  0  0  0  0  0
    1.1946   -0.4694    0.9880 H   0  0  0  0  0  0  0  0  0  0  0  0
    2.3559    2.9823    0.4983 H   0  0  0  0  0  0  0  0  0  0  0  0
    2.3737    1.6872    1.6989 H   0  0  0  0  0  0  0  0  0  0  0  0
    3.7279    1.8390    0.5442 H   0  0  0  0  0  0  0  0  0  0  0  0
   -2.7787   -1.1289   -1.9559 H   0  0  0  0  0  0  0  0  0  0  0  0
   -3.2517   -2.3177   -0.7460 H   0  0  0  0  0  0  0  0  0  0  0  0
   -1.5898   -2.3382   -1.3919 H   0  0  0  0  0  0  0  0  0  0  0  0
   -2.9594   -1.5737    1.6970 H   0  0  0  0  0  0  0  0  0  0  0  0
   -1.2982   -1.0046    2.0234 H   0  0  0  0  0  0  0  0  0  0  0  0
   -1.5455   -2.5305    1.1696 H   0  0  0  0  0  0  0  0  0  0  0  0
  1  2  1  0
  2  3  1  0
  2  4  1  0
  4  5  2  0
  4  6  1  0
  6  7  1  0
  7  8  1  0
  8  9  2  0
  8 10  1  0
 10 11  1  0
 10 12  1  0
  1 13  1  0
  1 14  1  0
  1 15  1  0
  3 16  1  0
  3 17  1  0
  3 18  1  0
 11 19  1  0
 11 20  1  0
 11 21  1  0
 12 22  1  0
 12 23  1  0
 12 24  1  0
M  END
>  <Energy>  (3) 
-9.767221720358677

>  <Real charge>  (3) 
0

>  <Mult>  (3) 
1

$$$$
