mol_1087 227
     RDKit          3D

 27 28  0  0  0  0  0  0  0  0999 V2000
    2.5194    1.1588    0.3802 C   0  0  0  0  0  0  0  0  0  0  0  0
    3.9052    1.3337    0.3030 C   0  0  0  0  0  0  0  0  0  0  0  0
    4.7073    0.3479   -0.2664 C   0  0  0  0  0  0  0  0  0  0  0  0
    4.1248   -0.8165   -0.7583 C   0  0  0  0  0  0  0  0  0  0  0  0
    2.7404   -0.9913   -0.6811 C   0  0  0  0  0  0  0  0  0  0  0  0
    1.9241   -0.0027   -0.1147 C   0  0  0  0  0  0  0  0  0  0  0  0
    0.5372   -0.2608   -0.0687 N   0  0  0  0  0  0  0  0  0  0  0  0
   -0.4615    0.5997    0.3479 C   0  0  0  0  0  0  0  0  0  0  0  0
   -0.3305    1.7796    0.6625 O   0  0  0  0  0  0  0  0  0  0  0  0
   -1.8450    0.0412    0.3480 C   0  0  0  0  0  0  0  0  0  0  0  0
   -2.9379    0.9002    0.1534 C   0  0  0  0  0  0  0  0  0  0  0  0
   -2.8054    2.2537   -0.0138 O   0  0  0  0  0  0  0  0  0  0  0  0
   -4.2383    0.4007    0.1225 C   0  0  0  0  0  0  0  0  0  0  0  0
   -4.4646   -0.9618    0.3123 C   0  0  0  0  0  0  0  0  0  0  0  0
   -3.3913   -1.8222    0.5414 C   0  0  0  0  0  0  0  0  0  0  0  0
   -2.0847   -1.3249    0.5645 C   0  0  0  0  0  0  0  0  0  0  0  0
    1.9347    1.9494    0.8394 H   0  0  0  0  0  0  0  0  0  0  0  0
    4.3546    2.2444    0.6913 H   0  0  0  0  0  0  0  0  0  0  0  0
    5.7834    0.4882   -0.3249 H   0  0  0  0  0  0  0  0  0  0  0  0
    4.7469   -1.5889   -1.2029 H   0  0  0  0  0  0  0  0  0  0  0  0
    2.3130   -1.9098   -1.0740 H   0  0  0  0  0  0  0  0  0  0  0  0
    0.2504   -1.1457   -0.4646 H   0  0  0  0  0  0  0  0  0  0  0  0
   -1.8789    2.4931    0.2159 H   0  0  0  0  0  0  0  0  0  0  0  0
   -5.0736    1.0772   -0.0395 H   0  0  0  0  0  0  0  0  0  0  0  0
   -5.4807   -1.3485    0.2956 H   0  0  0  0  0  0  0  0  0  0  0  0
   -3.5747   -2.8807    0.7121 H   0  0  0  0  0  0  0  0  0  0  0  0
   -1.2743   -2.0142    0.7833 H   0  0  0  0  0  0  0  0  0  0  0  0
  1  2  2  0
  2  3  1  0
  3  4  2  0
  4  5  1  0
  5  6  2  0
  6  7  1  0
  7  8  1  0
  8  9  2  0
  8 10  1  0
 10 11  2  0
 11 12  1  0
 11 13  1  0
 13 14  2  0
 14 15  1  0
 15 16  2  0
  6  1  1  0
 16 10  1  0
  1 17  1  0
  2 18  1  0
  3 19  1  0
  4 20  1  0
  5 21  1  0
  7 22  1  0
 12 23  1  0
 13 24  1  0
 14 25  1  0
 15 26  1  0
 16 27  1  0
M  END
>  <Energy>  (1) 
30.841286907674736

>  <Real charge>  (1) 
0

>  <Mult>  (1) 
1

$$$$
