mol_569 134
     RDKit          3D

 26 27  0  0  0  0  0  0  0  0999 V2000
   -4.9194   -0.1193   -0.6392 N   0  0  0  0  0  0  0  0  0  0  0  0
   -3.5494   -0.0311   -0.3684 C   0  0  0  0  0  0  0  0  0  0  0  0
   -2.7587    0.9070   -1.0319 C   0  0  0  0  0  0  0  0  0  0  0  0
   -1.3698    0.9260   -0.8555 C   0  0  0  0  0  0  0  0  0  0  0  0
   -0.7302   -0.0229   -0.0440 C   0  0  0  0  0  0  0  0  0  0  0  0
   -1.5280   -0.9996    0.5700 C   0  0  0  0  0  0  0  0  0  0  0  0
   -2.9167   -1.0145    0.3922 C   0  0  0  0  0  0  0  0  0  0  0  0
    0.7299   -0.0040    0.1397 C   0  0  0  0  0  0  0  0  0  0  0  0
    1.5082   -1.1457   -0.1019 C   0  0  0  0  0  0  0  0  0  0  0  0
    2.8970   -1.1238    0.0746 C   0  0  0  0  0  0  0  0  0  0  0  0
    3.5496    0.0485    0.4563 C   0  0  0  0  0  0  0  0  0  0  0  0
    4.9186    0.0335    0.7453 N   0  0  0  0  0  0  0  0  0  0  0  0
    2.7778    1.1706    0.7577 C   0  0  0  0  0  0  0  0  0  0  0  0
    1.3890    1.1531    0.5810 C   0  0  0  0  0  0  0  0  0  0  0  0
   -5.3395    0.7627   -0.9145 H   0  0  0  0  0  0  0  0  0  0  0  0
   -5.4502   -0.5888    0.0875 H   0  0  0  0  0  0  0  0  0  0  0  0
   -3.2146    1.6354   -1.6968 H   0  0  0  0  0  0  0  0  0  0  0  0
   -0.7851    1.6779   -1.3812 H   0  0  0  0  0  0  0  0  0  0  0  0
   -1.0723   -1.7635    1.1966 H   0  0  0  0  0  0  0  0  0  0  0  0
   -3.4985   -1.8037    0.8604 H   0  0  0  0  0  0  0  0  0  0  0  0
    1.0370   -2.0692   -0.4320 H   0  0  0  0  0  0  0  0  0  0  0  0
    3.4632   -2.0357   -0.0945 H   0  0  0  0  0  0  0  0  0  0  0  0
    5.4387   -0.6651    0.2239 H   0  0  0  0  0  0  0  0  0  0  0  0
    5.3552    0.9489    0.7046 H   0  0  0  0  0  0  0  0  0  0  0  0
    3.2487    2.0738    1.1357 H   0  0  0  0  0  0  0  0  0  0  0  0
    0.8194    2.0496    0.8170 H   0  0  0  0  0  0  0  0  0  0  0  0
  1  2  1  0
  2  3  2  0
  3  4  1  0
  4  5  2  0
  5  6  1  0
  6  7  2  0
  5  8  1  0
  8  9  2  0
  9 10  1  0
 10 11  2  0
 11 12  1  0
 11 13  1  0
 13 14  2  0
  7  2  1  0
 14  8  1  0
  1 15  1  0
  1 16  1  0
  3 17  1  0
  4 18  1  0
  6 19  1  0
  7 20  1  0
  9 21  1  0
 10 22  1  0
 12 23  1  0
 12 24  1  0
 13 25  1  0
 14 26  1  0
M  END
>  <Energy>  (1) 
18.67304438808842

>  <Real charge>  (1) 
0

>  <Mult>  (1) 
1

$$$$
