mol_67 380
     RDKit          3D

 31 31  0  0  0  0  0  0  0  0999 V2000
    4.4142    1.5363   -0.3851 C   0  0  0  0  0  0  0  0  0  0  0  0
    3.0161    0.9998   -0.1207 C   0  0  0  0  0  0  0  0  0  0  0  0
    2.8847   -0.3158   -0.7203 N   0  0  0  0  0  0  0  0  0  0  0  0
    1.6669   -0.9448   -0.4884 C   0  0  0  0  0  0  0  0  0  0  0  0
    1.7160   -2.2563   -0.3816 N   0  0  0  0  0  0  0  0  0  0  0  0
    0.5290   -2.8013   -0.1755 C   0  0  0  0  0  0  0  0  0  0  0  0
    0.5070   -4.5049   -0.0237 Cl  0  0  0  0  0  0  0  0  0  0  0  0
   -0.6429   -2.1982   -0.0593 N   0  0  0  0  0  0  0  0  0  0  0  0
   -0.5913   -0.8817   -0.1792 C   0  0  0  0  0  0  0  0  0  0  0  0
    0.5513   -0.2297   -0.3892 N   0  0  0  0  0  0  0  0  0  0  0  0
   -1.7602   -0.1551   -0.0651 N   0  0  0  0  0  0  0  0  0  0  0  0
   -1.7481    1.2749   -0.3435 C   0  0  0  0  0  0  0  0  0  0  0  0
   -1.4025    2.0622    0.9120 C   0  0  0  0  0  0  0  0  0  0  0  0
   -3.0363   -0.8466    0.0599 C   0  0  0  0  0  0  0  0  0  0  0  0
   -3.5674   -1.2819   -1.2985 C   0  0  0  0  0  0  0  0  0  0  0  0
    5.1760    0.8800    0.0491 H   0  0  0  0  0  0  0  0  0  0  0  0
    4.5299    2.5320    0.0539 H   0  0  0  0  0  0  0  0  0  0  0  0
    4.6093    1.6102   -1.4603 H   0  0  0  0  0  0  0  0  0  0  0  0
    2.2878    1.6984   -0.5495 H   0  0  0  0  0  0  0  0  0  0  0  0
    2.8505    0.9496    0.9624 H   0  0  0  0  0  0  0  0  0  0  0  0
    3.6075   -0.9841   -0.4731 H   0  0  0  0  0  0  0  0  0  0  0  0
   -2.7377    1.5972   -0.6906 H   0  0  0  0  0  0  0  0  0  0  0  0
   -1.0566    1.5277   -1.1567 H   0  0  0  0  0  0  0  0  0  0  0  0
   -1.4331    3.1366    0.7057 H   0  0  0  0  0  0  0  0  0  0  0  0
   -0.4008    1.8162    1.2784 H   0  0  0  0  0  0  0  0  0  0  0  0
   -2.1144    1.8487    1.7164 H   0  0  0  0  0  0  0  0  0  0  0  0
   -2.9626   -1.7102    0.7321 H   0  0  0  0  0  0  0  0  0  0  0  0
   -3.7685   -0.1762    0.5272 H   0  0  0  0  0  0  0  0  0  0  0  0
   -2.8901   -1.9897   -1.7867 H   0  0  0  0  0  0  0  0  0  0  0  0
   -3.6927   -0.4242   -1.9675 H   0  0  0  0  0  0  0  0  0  0  0  0
   -4.5409   -1.7690   -1.1848 H   0  0  0  0  0  0  0  0  0  0  0  0
  1  2  1  0
  2  3  1  0
  3  4  1  0
  4  5  2  0
  5  6  1  0
  6  7  1  0
  6  8  2  0
  8  9  1  0
  9 10  2  0
  9 11  1  0
 11 12  1  0
 12 13  1  0
 11 14  1  0
 14 15  1  0
 10  4  1  0
  1 16  1  0
  1 17  1  0
  1 18  1  0
  2 19  1  0
  2 20  1  0
  3 21  1  0
 12 22  1  0
 12 23  1  0
 13 24  1  0
 13 25  1  0
 13 26  1  0
 14 27  1  0
 14 28  1  0
 15 29  1  0
 15 30  1  0
 15 31  1  0
M  END
>  <Energy>  (1) 
-230.36866500478718

>  <Real charge>  (1) 
0

>  <Mult>  (1) 
1

$$$$
mol_67 419
     RDKit          3D

 31 31  0  0  0  0  0  0  0  0999 V2000
    4.5999    0.9883    0.5354 C   0  0  0  0  0  0  0  0  0  0  0  0
    3.1208    0.7874    0.2448 C   0  0  0  0  0  0  0  0  0  0  0  0
    2.8897   -0.5934   -0.1387 N   0  0  0  0  0  0  0  0  0  0  0  0
    1.5798   -0.8914   -0.4956 C   0  0  0  0  0  0  0  0  0  0  0  0
    1.4406   -1.8113   -1.4274 N   0  0  0  0  0  0  0  0  0  0  0  0
    0.1755   -2.0674   -1.7139 C   0  0  0  0  0  0  0  0  0  0  0  0
   -0.0912   -3.2511   -2.9196 Cl  0  0  0  0  0  0  0  0  0  0  0  0
   -0.9113   -1.5179   -1.1969 N   0  0  0  0  0  0  0  0  0  0  0  0
   -0.6709   -0.6029   -0.2721 C   0  0  0  0  0  0  0  0  0  0  0  0
    0.5654   -0.2661    0.0927 N   0  0  0  0  0  0  0  0  0  0  0  0
   -1.7382    0.0375    0.3256 N   0  0  0  0  0  0  0  0  0  0  0  0
   -3.0989   -0.3918    0.0316 C   0  0  0  0  0  0  0  0  0  0  0  0
   -3.6402    0.3423   -1.1863 C   0  0  0  0  0  0  0  0  0  0  0  0
   -1.5043    0.9676    1.4215 C   0  0  0  0  0  0  0  0  0  0  0  0
   -1.3439    0.2344    2.7457 C   0  0  0  0  0  0  0  0  0  0  0  0
    4.7927    2.0234    0.8339 H   0  0  0  0  0  0  0  0  0  0  0  0
    4.9339    0.3298    1.3443 H   0  0  0  0  0  0  0  0  0  0  0  0
    5.2078    0.7679   -0.3485 H   0  0  0  0  0  0  0  0  0  0  0  0
    2.5507    1.0423    1.1462 H   0  0  0  0  0  0  0  0  0  0  0  0
    2.8180    1.4682   -0.5599 H   0  0  0  0  0  0  0  0  0  0  0  0
    3.4811   -0.9466   -0.8840 H   0  0  0  0  0  0  0  0  0  0  0  0
   -3.7525   -0.1740    0.8855 H   0  0  0  0  0  0  0  0  0  0  0  0
   -3.1631   -1.4769   -0.1160 H   0  0  0  0  0  0  0  0  0  0  0  0
   -3.0500    0.1238   -2.0820 H   0  0  0  0  0  0  0  0  0  0  0  0
   -3.6222    1.4262   -1.0304 H   0  0  0  0  0  0  0  0  0  0  0  0
   -4.6747    0.0427   -1.3805 H   0  0  0  0  0  0  0  0  0  0  0  0
   -0.6305    1.6031    1.2323 H   0  0  0  0  0  0  0  0  0  0  0  0
   -2.3536    1.6577    1.5010 H   0  0  0  0  0  0  0  0  0  0  0  0
   -0.4778   -0.4347    2.7320 H   0  0  0  0  0  0  0  0  0  0  0  0
   -2.2287   -0.3693    2.9728 H   0  0  0  0  0  0  0  0  0  0  0  0
   -1.2040    0.9520    3.5602 H   0  0  0  0  0  0  0  0  0  0  0  0
  1  2  1  0
  2  3  1  0
  3  4  1  0
  4  5  2  0
  5  6  1  0
  6  7  1  0
  6  8  2  0
  8  9  1  0
  9 10  2  0
  9 11  1  0
 11 12  1  0
 12 13  1  0
 11 14  1  0
 14 15  1  0
 10  4  1  0
  1 16  1  0
  1 17  1  0
  1 18  1  0
  2 19  1  0
  2 20  1  0
  3 21  1  0
 12 22  1  0
 12 23  1  0
 13 24  1  0
 13 25  1  0
 13 26  1  0
 14 27  1  0
 14 28  1  0
 15 29  1  0
 15 30  1  0
 15 31  1  0
M  END
>  <Energy>  (2) 
-230.29936650015262

>  <Real charge>  (2) 
0

>  <Mult>  (2) 
1

$$$$
mol_67 247
     RDKit          3D

 31 31  0  0  0  0  0  0  0  0999 V2000
    4.9228    0.8769    0.6745 C   0  0  0  0  0  0  0  0  0  0  0  0
    3.8316    0.4687   -0.3028 C   0  0  0  0  0  0  0  0  0  0  0  0
    2.6563    0.0471    0.4378 N   0  0  0  0  0  0  0  0  0  0  0  0
    1.5566   -0.2891   -0.3426 C   0  0  0  0  0  0  0  0  0  0  0  0
    1.7219   -0.8413   -1.5278 N   0  0  0  0  0  0  0  0  0  0  0  0
    0.5804   -1.1145   -2.1342 C   0  0  0  0  0  0  0  0  0  0  0  0
    0.7098   -1.8312   -3.6816 Cl  0  0  0  0  0  0  0  0  0  0  0  0
   -0.6505   -0.8919   -1.7036 N   0  0  0  0  0  0  0  0  0  0  0  0
   -0.7159   -0.3329   -0.5062 C   0  0  0  0  0  0  0  0  0  0  0  0
    0.3733   -0.0157    0.1944 N   0  0  0  0  0  0  0  0  0  0  0  0
   -1.9567   -0.0545    0.0310 N   0  0  0  0  0  0  0  0  0  0  0  0
   -2.0612    0.4439    1.3955 C   0  0  0  0  0  0  0  0  0  0  0  0
   -1.9701    1.9625    1.4195 C   0  0  0  0  0  0  0  0  0  0  0  0
   -3.1647   -0.4579   -0.6760 C   0  0  0  0  0  0  0  0  0  0  0  0
   -3.5102   -1.9130   -0.3937 C   0  0  0  0  0  0  0  0  0  0  0  0
    4.5939    1.7092    1.3058 H   0  0  0  0  0  0  0  0  0  0  0  0
    5.8208    1.1915    0.1339 H   0  0  0  0  0  0  0  0  0  0  0  0
    5.1922    0.0438    1.3323 H   0  0  0  0  0  0  0  0  0  0  0  0
    3.5946    1.3206   -0.9517 H   0  0  0  0  0  0  0  0  0  0  0  0
    4.2113   -0.3477   -0.9287 H   0  0  0  0  0  0  0  0  0  0  0  0
    2.3205    0.7015    1.1370 H   0  0  0  0  0  0  0  0  0  0  0  0
   -3.0248    0.1478    1.8286 H   0  0  0  0  0  0  0  0  0  0  0  0
   -1.2992    0.0049    2.0511 H   0  0  0  0  0  0  0  0  0  0  0  0
   -2.7560    2.4122    0.8036 H   0  0  0  0  0  0  0  0  0  0  0  0
   -2.0852    2.3328    2.4430 H   0  0  0  0  0  0  0  0  0  0  0  0
   -1.0056    2.3131    1.0386 H   0  0  0  0  0  0  0  0  0  0  0  0
   -4.0031    0.1726   -0.3542 H   0  0  0  0  0  0  0  0  0  0  0  0
   -3.0745   -0.2925   -1.7566 H   0  0  0  0  0  0  0  0  0  0  0  0
   -3.6507   -2.0850    0.6785 H   0  0  0  0  0  0  0  0  0  0  0  0
   -4.4375   -2.1874   -0.9062 H   0  0  0  0  0  0  0  0  0  0  0  0
   -2.7204   -2.5876   -0.7391 H   0  0  0  0  0  0  0  0  0  0  0  0
  1  2  1  0
  2  3  1  0
  3  4  1  0
  4  5  2  0
  5  6  1  0
  6  7  1  0
  6  8  2  0
  8  9  1  0
  9 10  2  0
  9 11  1  0
 11 12  1  0
 12 13  1  0
 11 14  1  0
 14 15  1  0
 10  4  1  0
  1 16  1  0
  1 17  1  0
  1 18  1  0
  2 19  1  0
  2 20  1  0
  3 21  1  0
 12 22  1  0
 12 23  1  0
 13 24  1  0
 13 25  1  0
 13 26  1  0
 14 27  1  0
 14 28  1  0
 15 29  1  0
 15 30  1  0
 15 31  1  0
M  END
>  <Energy>  (3) 
-230.2816055192839

>  <Real charge>  (3) 
0

>  <Mult>  (3) 
1

$$$$
mol_67 226
     RDKit          3D

 31 31  0  0  0  0  0  0  0  0999 V2000
    5.0005    0.6464    0.5884 C   0  0  0  0  0  0  0  0  0  0  0  0
    3.8580   -0.3419    0.4141 C   0  0  0  0  0  0  0  0  0  0  0  0
    2.6848    0.3610   -0.0728 N   0  0  0  0  0  0  0  0  0  0  0  0
    1.5439   -0.4205   -0.2114 C   0  0  0  0  0  0  0  0  0  0  0  0
    1.6409   -1.6897   -0.5528 N   0  0  0  0  0  0  0  0  0  0  0  0
    0.4674   -2.2870   -0.6598 C   0  0  0  0  0  0  0  0  0  0  0  0
    0.5079   -3.9404   -1.0954 Cl  0  0  0  0  0  0  0  0  0  0  0  0
   -0.7352   -1.7735   -0.4594 N   0  0  0  0  0  0  0  0  0  0  0  0
   -0.7317   -0.4955   -0.1169 C   0  0  0  0  0  0  0  0  0  0  0  0
    0.3951    0.2039    0.0204 N   0  0  0  0  0  0  0  0  0  0  0  0
   -1.9375    0.1330    0.1214 N   0  0  0  0  0  0  0  0  0  0  0  0
   -1.9713    1.5621    0.3986 C   0  0  0  0  0  0  0  0  0  0  0  0
   -1.9374    2.3754   -0.8875 C   0  0  0  0  0  0  0  0  0  0  0  0
   -3.1866   -0.5759   -0.1238 C   0  0  0  0  0  0  0  0  0  0  0  0
   -3.6107   -1.3563    1.1116 C   0  0  0  0  0  0  0  0  0  0  0  0
    4.7389    1.4264    1.3113 H   0  0  0  0  0  0  0  0  0  0  0  0
    5.8973    0.1329    0.9486 H   0  0  0  0  0  0  0  0  0  0  0  0
    5.2433    1.1369   -0.3603 H   0  0  0  0  0  0  0  0  0  0  0  0
    4.1714   -1.1158   -0.2967 H   0  0  0  0  0  0  0  0  0  0  0  0
    3.6488   -0.8217    1.3779 H   0  0  0  0  0  0  0  0  0  0  0  0
    2.4083    1.1770    0.4633 H   0  0  0  0  0  0  0  0  0  0  0  0
   -1.1504    1.8649    1.0600 H   0  0  0  0  0  0  0  0  0  0  0  0
   -2.8905    1.8058    0.9460 H   0  0  0  0  0  0  0  0  0  0  0  0
   -2.7788    2.1188   -1.5396 H   0  0  0  0  0  0  0  0  0  0  0  0
   -1.9974    3.4444   -0.6602 H   0  0  0  0  0  0  0  0  0  0  0  0
   -1.0143    2.2002   -1.4492 H   0  0  0  0  0  0  0  0  0  0  0  0
   -3.9805    0.1401   -0.3704 H   0  0  0  0  0  0  0  0  0  0  0  0
   -3.1152   -1.2429   -0.9917 H   0  0  0  0  0  0  0  0  0  0  0  0
   -3.7289   -0.6914    1.9737 H   0  0  0  0  0  0  0  0  0  0  0  0
   -4.5675   -1.8571    0.9335 H   0  0  0  0  0  0  0  0  0  0  0  0
   -2.8727   -2.1198    1.3773 H   0  0  0  0  0  0  0  0  0  0  0  0
  1  2  1  0
  2  3  1  0
  3  4  1  0
  4  5  2  0
  5  6  1  0
  6  7  1  0
  6  8  2  0
  8  9  1  0
  9 10  2  0
  9 11  1  0
 11 12  1  0
 12 13  1  0
 11 14  1  0
 14 15  1  0
 10  4  1  0
  1 16  1  0
  1 17  1  0
  1 18  1  0
  2 19  1  0
  2 20  1  0
  3 21  1  0
 12 22  1  0
 12 23  1  0
 13 24  1  0
 13 25  1  0
 13 26  1  0
 14 27  1  0
 14 28  1  0
 15 29  1  0
 15 30  1  0
 15 31  1  0
M  END
>  <Energy>  (4) 
-230.2690953389881

>  <Real charge>  (4) 
0

>  <Mult>  (4) 
1

$$$$
mol_67 238
     RDKit          3D

 31 31  0  0  0  0  0  0  0  0999 V2000
    4.3892    1.5046    0.1547 C   0  0  0  0  0  0  0  0  0  0  0  0
    2.9642    0.9761    0.1091 C   0  0  0  0  0  0  0  0  0  0  0  0
    2.9590   -0.3405   -0.5024 N   0  0  0  0  0  0  0  0  0  0  0  0
    1.7168   -0.9630   -0.5414 C   0  0  0  0  0  0  0  0  0  0  0  0
    1.7348   -2.2746   -0.4264 N   0  0  0  0  0  0  0  0  0  0  0  0
    0.5289   -2.8136   -0.4856 C   0  0  0  0  0  0  0  0  0  0  0  0
    0.4653   -4.5166   -0.3399 Cl  0  0  0  0  0  0  0  0  0  0  0  0
   -0.6371   -2.2044   -0.6267 N   0  0  0  0  0  0  0  0  0  0  0  0
   -0.5547   -0.8879   -0.7280 C   0  0  0  0  0  0  0  0  0  0  0  0
    0.6099   -0.2421   -0.6861 N   0  0  0  0  0  0  0  0  0  0  0  0
   -1.7161   -0.1560   -0.8762 N   0  0  0  0  0  0  0  0  0  0  0  0
   -3.0044   -0.8351   -0.9214 C   0  0  0  0  0  0  0  0  0  0  0  0
   -3.5223   -1.1463    0.4753 C   0  0  0  0  0  0  0  0  0  0  0  0
   -1.6472    1.2923   -1.0170 C   0  0  0  0  0  0  0  0  0  0  0  0
   -1.5294    1.9823    0.3343 C   0  0  0  0  0  0  0  0  0  0  0  0
    4.8143    1.5743   -0.8523 H   0  0  0  0  0  0  0  0  0  0  0  0
    5.0344    0.8458    0.7456 H   0  0  0  0  0  0  0  0  0  0  0  0
    4.4122    2.5011    0.6066 H   0  0  0  0  0  0  0  0  0  0  0  0
    2.3506    1.6771   -0.4694 H   0  0  0  0  0  0  0  0  0  0  0  0
    2.5662    0.9299    1.1301 H   0  0  0  0  0  0  0  0  0  0  0  0
    3.6077   -1.0117   -0.1040 H   0  0  0  0  0  0  0  0  0  0  0  0
   -2.9480   -1.7557   -1.5156 H   0  0  0  0  0  0  0  0  0  0  0  0
   -3.7431   -0.2062   -1.4331 H   0  0  0  0  0  0  0  0  0  0  0  0
   -2.8337   -1.7923    1.0287 H   0  0  0  0  0  0  0  0  0  0  0  0
   -4.4882   -1.6575    0.4131 H   0  0  0  0  0  0  0  0  0  0  0  0
   -3.6636   -0.2313    1.0582 H   0  0  0  0  0  0  0  0  0  0  0  0
   -2.5489    1.6643   -1.5187 H   0  0  0  0  0  0  0  0  0  0  0  0
   -0.8132    1.5894   -1.6651 H   0  0  0  0  0  0  0  0  0  0  0  0
   -1.4780    3.0673    0.1993 H   0  0  0  0  0  0  0  0  0  0  0  0
   -2.3943    1.7632    0.9675 H   0  0  0  0  0  0  0  0  0  0  0  0
   -0.6312    1.6671    0.8743 H   0  0  0  0  0  0  0  0  0  0  0  0
  1  2  1  0
  2  3  1  0
  3  4  1  0
  4  5  2  0
  5  6  1  0
  6  7  1  0
  6  8  2  0
  8  9  1  0
  9 10  2  0
  9 11  1  0
 11 12  1  0
 12 13  1  0
 11 14  1  0
 14 15  1  0
 10  4  1  0
  1 16  1  0
  1 17  1  0
  1 18  1  0
  2 19  1  0
  2 20  1  0
  3 21  1  0
 12 22  1  0
 12 23  1  0
 13 24  1  0
 13 25  1  0
 13 26  1  0
 14 27  1  0
 14 28  1  0
 15 29  1  0
 15 30  1  0
 15 31  1  0
M  END
>  <Energy>  (5) 
-229.80959125863404

>  <Real charge>  (5) 
0

>  <Mult>  (5) 
1

$$$$
mol_67 308
     RDKit          3D

 31 31  0  0  0  0  0  0  0  0999 V2000
    4.5193    1.0067   -1.0042 C   0  0  0  0  0  0  0  0  0  0  0  0
    3.0675    0.5551   -0.9744 C   0  0  0  0  0  0  0  0  0  0  0  0
    2.9036   -0.4695    0.0405 N   0  0  0  0  0  0  0  0  0  0  0  0
    1.6277   -1.0141    0.1245 C   0  0  0  0  0  0  0  0  0  0  0  0
    1.5739   -2.2827    0.4734 N   0  0  0  0  0  0  0  0  0  0  0  0
    0.3369   -2.7426    0.5552 C   0  0  0  0  0  0  0  0  0  0  0  0
    0.1805   -4.3864    1.0013 Cl  0  0  0  0  0  0  0  0  0  0  0  0
   -0.7956   -2.0990    0.3240 N   0  0  0  0  0  0  0  0  0  0  0  0
   -0.6407   -0.8315   -0.0218 C   0  0  0  0  0  0  0  0  0  0  0  0
    0.5605   -0.2666   -0.1369 N   0  0  0  0  0  0  0  0  0  0  0  0
   -1.7623   -0.0696   -0.2844 N   0  0  0  0  0  0  0  0  0  0  0  0
   -1.6173    1.3386   -0.6297 C   0  0  0  0  0  0  0  0  0  0  0  0
   -1.4051    2.2084    0.6008 C   0  0  0  0  0  0  0  0  0  0  0  0
   -3.0890   -0.6579   -0.1503 C   0  0  0  0  0  0  0  0  0  0  0  0
   -3.5580   -0.6794    1.2971 C   0  0  0  0  0  0  0  0  0  0  0  0
    5.1861    0.1716   -1.2441 H   0  0  0  0  0  0  0  0  0  0  0  0
    4.6610    1.7856   -1.7597 H   0  0  0  0  0  0  0  0  0  0  0  0
    4.8246    1.4106   -0.0330 H   0  0  0  0  0  0  0  0  0  0  0  0
    2.4364    1.4248   -0.7560 H   0  0  0  0  0  0  0  0  0  0  0  0
    2.7923    0.1678   -1.9629 H   0  0  0  0  0  0  0  0  0  0  0  0
    3.5501   -1.2498   -0.0143 H   0  0  0  0  0  0  0  0  0  0  0  0
   -2.5155    1.6896   -1.1524 H   0  0  0  0  0  0  0  0  0  0  0  0
   -0.7942    1.4872   -1.3400 H   0  0  0  0  0  0  0  0  0  0  0  0
   -0.5099    1.9150    1.1576 H   0  0  0  0  0  0  0  0  0  0  0  0
   -1.2888    3.2558    0.3043 H   0  0  0  0  0  0  0  0  0  0  0  0
   -2.2580    2.1470    1.2828 H   0  0  0  0  0  0  0  0  0  0  0  0
   -3.8132   -0.0852   -0.7424 H   0  0  0  0  0  0  0  0  0  0  0  0
   -3.1144   -1.6725   -0.5674 H   0  0  0  0  0  0  0  0  0  0  0  0
   -3.6343    0.3327    1.7048 H   0  0  0  0  0  0  0  0  0  0  0  0
   -2.8763   -1.2476    1.9374 H   0  0  0  0  0  0  0  0  0  0  0  0
   -4.5479   -1.1420    1.3641 H   0  0  0  0  0  0  0  0  0  0  0  0
  1  2  1  0
  2  3  1  0
  3  4  1  0
  4  5  2  0
  5  6  1  0
  6  7  1  0
  6  8  2  0
  8  9  1  0
  9 10  2  0
  9 11  1  0
 11 12  1  0
 12 13  1  0
 11 14  1  0
 14 15  1  0
 10  4  1  0
  1 16  1  0
  1 17  1  0
  1 18  1  0
  2 19  1  0
  2 20  1  0
  3 21  1  0
 12 22  1  0
 12 23  1  0
 13 24  1  0
 13 25  1  0
 13 26  1  0
 14 27  1  0
 14 28  1  0
 15 29  1  0
 15 30  1  0
 15 31  1  0
M  END
>  <Energy>  (6) 
-229.75460969155418

>  <Real charge>  (6) 
0

>  <Mult>  (6) 
1

$$$$
mol_67 398
     RDKit          3D

 31 31  0  0  0  0  0  0  0  0999 V2000
    4.4252   -0.9013    2.3612 C   0  0  0  0  0  0  0  0  0  0  0  0
    3.6116   -0.0050    1.4409 C   0  0  0  0  0  0  0  0  0  0  0  0
    2.5494   -0.7825    0.8288 N   0  0  0  0  0  0  0  0  0  0  0  0
    1.6862   -0.0621    0.0118 C   0  0  0  0  0  0  0  0  0  0  0  0
    2.1284    0.9636   -0.6875 N   0  0  0  0  0  0  0  0  0  0  0  0
    1.1896    1.5285   -1.4256 C   0  0  0  0  0  0  0  0  0  0  0  0
    1.6830    2.8727   -2.3609 Cl  0  0  0  0  0  0  0  0  0  0  0  0
   -0.0879    1.1983   -1.5210 N   0  0  0  0  0  0  0  0  0  0  0  0
   -0.4399    0.1619   -0.7777 C   0  0  0  0  0  0  0  0  0  0  0  0
    0.4276   -0.4854    0.0009 N   0  0  0  0  0  0  0  0  0  0  0  0
   -1.7540   -0.2618   -0.8059 N   0  0  0  0  0  0  0  0  0  0  0  0
   -2.1630   -1.4150   -0.0154 C   0  0  0  0  0  0  0  0  0  0  0  0
   -2.4540   -1.0305    1.4279 C   0  0  0  0  0  0  0  0  0  0  0  0
   -2.7234    0.4286   -1.6469 C   0  0  0  0  0  0  0  0  0  0  0  0
   -3.2641    1.6790   -0.9687 C   0  0  0  0  0  0  0  0  0  0  0  0
    3.7994   -1.3198    3.1567 H   0  0  0  0  0  0  0  0  0  0  0  0
    4.8652   -1.7370    1.8068 H   0  0  0  0  0  0  0  0  0  0  0  0
    5.2365   -0.3336    2.8272 H   0  0  0  0  0  0  0  0  0  0  0  0
    4.2803    0.4101    0.6774 H   0  0  0  0  0  0  0  0  0  0  0  0
    3.1958    0.8251    2.0248 H   0  0  0  0  0  0  0  0  0  0  0  0
    1.9642   -1.3078    1.4701 H   0  0  0  0  0  0  0  0  0  0  0  0
   -1.4057   -2.2082   -0.0479 H   0  0  0  0  0  0  0  0  0  0  0  0
   -3.0678   -1.8628   -0.4443 H   0  0  0  0  0  0  0  0  0  0  0  0
   -3.2675   -0.3013    1.4872 H   0  0  0  0  0  0  0  0  0  0  0  0
   -2.7534   -1.9146    1.9997 H   0  0  0  0  0  0  0  0  0  0  0  0
   -1.5773   -0.5938    1.9162 H   0  0  0  0  0  0  0  0  0  0  0  0
   -2.2913    0.6862   -2.6220 H   0  0  0  0  0  0  0  0  0  0  0  0
   -3.5666   -0.2360   -1.8716 H   0  0  0  0  0  0  0  0  0  0  0  0
   -3.7728    1.4330   -0.0319 H   0  0  0  0  0  0  0  0  0  0  0  0
   -3.9866    2.1786   -1.6219 H   0  0  0  0  0  0  0  0  0  0  0  0
   -2.4672    2.3929   -0.7389 H   0  0  0  0  0  0  0  0  0  0  0  0
  1  2  1  0
  2  3  1  0
  3  4  1  0
  4  5  2  0
  5  6  1  0
  6  7  1  0
  6  8  2  0
  8  9  1  0
  9 10  2  0
  9 11  1  0
 11 12  1  0
 12 13  1  0
 11 14  1  0
 14 15  1  0
 10  4  1  0
  1 16  1  0
  1 17  1  0
  1 18  1  0
  2 19  1  0
  2 20  1  0
  3 21  1  0
 12 22  1  0
 12 23  1  0
 13 24  1  0
 13 25  1  0
 13 26  1  0
 14 27  1  0
 14 28  1  0
 15 29  1  0
 15 30  1  0
 15 31  1  0
M  END
>  <Energy>  (7) 
-229.72051559232506

>  <Real charge>  (7) 
0

>  <Mult>  (7) 
1

$$$$
mol_67 10
     RDKit          3D

 31 31  0  0  0  0  0  0  0  0999 V2000
    4.9794    1.0070    0.0329 C   0  0  0  0  0  0  0  0  0  0  0  0
    3.8938    0.0491   -0.4322 C   0  0  0  0  0  0  0  0  0  0  0  0
    2.6518    0.3620    0.2513 N   0  0  0  0  0  0  0  0  0  0  0  0
    1.5567   -0.4015   -0.1349 C   0  0  0  0  0  0  0  0  0  0  0  0
    1.7140   -1.6572   -0.5024 N   0  0  0  0  0  0  0  0  0  0  0  0
    0.5765   -2.2482   -0.8217 C   0  0  0  0  0  0  0  0  0  0  0  0
    0.6961   -3.8815   -1.3148 Cl  0  0  0  0  0  0  0  0  0  0  0  0
   -0.6425   -1.7340   -0.8230 N   0  0  0  0  0  0  0  0  0  0  0  0
   -0.7007   -0.4686   -0.4413 C   0  0  0  0  0  0  0  0  0  0  0  0
    0.3860    0.2243   -0.0992 N   0  0  0  0  0  0  0  0  0  0  0  0
   -1.9297    0.1607   -0.4066 N   0  0  0  0  0  0  0  0  0  0  0  0
   -3.1346   -0.5777   -0.7638 C   0  0  0  0  0  0  0  0  0  0  0  0
   -3.6438   -1.4281    0.3909 C   0  0  0  0  0  0  0  0  0  0  0  0
   -2.0261    1.5421    0.0467 C   0  0  0  0  0  0  0  0  0  0  0  0
   -2.0202    1.6448    1.5650 C   0  0  0  0  0  0  0  0  0  0  0  0
    4.7114    2.0447   -0.1929 H   0  0  0  0  0  0  0  0  0  0  0  0
    5.1347    0.9290    1.1143 H   0  0  0  0  0  0  0  0  0  0  0  0
    5.9265    0.7818   -0.4669 H   0  0  0  0  0  0  0  0  0  0  0  0
    3.7722    0.1451   -1.5180 H   0  0  0  0  0  0  0  0  0  0  0  0
    4.2137   -0.9757   -0.2093 H   0  0  0  0  0  0  0  0  0  0  0  0
    2.3560    1.3315    0.2027 H   0  0  0  0  0  0  0  0  0  0  0  0
   -2.9644   -1.2073   -1.6462 H   0  0  0  0  0  0  0  0  0  0  0  0
   -3.9277    0.1209   -1.0574 H   0  0  0  0  0  0  0  0  0  0  0  0
   -3.9130   -0.8090    1.2514 H   0  0  0  0  0  0  0  0  0  0  0  0
   -4.5376   -1.9809    0.0843 H   0  0  0  0  0  0  0  0  0  0  0  0
   -2.8955   -2.1546    0.7222 H   0  0  0  0  0  0  0  0  0  0  0  0
   -1.2165    2.1521   -0.3733 H   0  0  0  0  0  0  0  0  0  0  0  0
   -2.9520    1.9950   -0.3285 H   0  0  0  0  0  0  0  0  0  0  0  0
   -2.8748    1.1203    2.0020 H   0  0  0  0  0  0  0  0  0  0  0  0
   -1.1097    1.2196    1.9982 H   0  0  0  0  0  0  0  0  0  0  0  0
   -2.0804    2.6943    1.8704 H   0  0  0  0  0  0  0  0  0  0  0  0
  1  2  1  0
  2  3  1  0
  3  4  1  0
  4  5  2  0
  5  6  1  0
  6  7  1  0
  6  8  2  0
  8  9  1  0
  9 10  2  0
  9 11  1  0
 11 12  1  0
 12 13  1  0
 11 14  1  0
 14 15  1  0
 10  4  1  0
  1 16  1  0
  1 17  1  0
  1 18  1  0
  2 19  1  0
  2 20  1  0
  3 21  1  0
 12 22  1  0
 12 23  1  0
 13 24  1  0
 13 25  1  0
 13 26  1  0
 14 27  1  0
 14 28  1  0
 15 29  1  0
 15 30  1  0
 15 31  1  0
M  END
>  <Energy>  (8) 
-229.7186800087615

>  <Real charge>  (8) 
0

>  <Mult>  (8) 
1

$$$$
