mol_430 242
     RDKit          3D

 21 25  0  0  0  0  0  0  0  0999 V2000
    2.1537   -2.2900   -1.3622 Cl  0  0  0  0  0  0  0  0  0  0  0  0
    1.3201   -0.9691   -0.5348 C   0  0  0  0  0  0  0  0  0  0  0  0
    2.2491    0.0201    0.2430 C   0  0  0  0  0  0  0  0  0  0  0  0
    3.4611    0.0309    0.3740 O   0  0  0  0  0  0  0  0  0  0  0  0
    1.1581    0.9912    0.8026 C   0  0  0  0  0  0  0  0  0  0  0  0
    1.7724    2.3250    1.7865 Cl  0  0  0  0  0  0  0  0  0  0  0  0
   -0.0146    0.0637    1.3572 C   0  0  0  0  0  0  0  0  0  0  0  0
   -0.2025   -0.1249    3.1057 Cl  0  0  0  0  0  0  0  0  0  0  0  0
    0.0966   -1.2823    0.4388 C   0  0  0  0  0  0  0  0  0  0  0  0
    0.0232   -2.8563    1.2422 Cl  0  0  0  0  0  0  0  0  0  0  0  0
    0.2767   -0.0614   -1.3289 C   0  0  0  0  0  0  0  0  0  0  0  0
    0.4633    0.1272   -3.0775 Cl  0  0  0  0  0  0  0  0  0  0  0  0
    0.1655    1.2847   -0.4105 C   0  0  0  0  0  0  0  0  0  0  0  0
    0.2376    2.8586   -1.2140 Cl  0  0  0  0  0  0  0  0  0  0  0  0
   -1.0351    0.9383    0.5426 C   0  0  0  0  0  0  0  0  0  0  0  0
   -1.8545    2.2856    1.3897 Cl  0  0  0  0  0  0  0  0  0  0  0  0
   -1.9683   -0.0176   -0.2127 C   0  0  0  0  0  0  0  0  0  0  0  0
   -3.0963   -0.8504    0.8714 Cl  0  0  0  0  0  0  0  0  0  0  0  0
   -2.8532    0.7974   -1.5143 Cl  0  0  0  0  0  0  0  0  0  0  0  0
   -0.8786   -0.9553   -0.7494 C   0  0  0  0  0  0  0  0  0  0  0  0
   -1.4743   -2.3153   -1.7494 Cl  0  0  0  0  0  0  0  0  0  0  0  0
  1  2  1  0
  2  3  1  0
  3  4  2  0
  3  5  1  0
  5  6  1  0
  5  7  1  0
  7  8  1  0
  7  9  1  0
  9 10  1  0
  2 11  1  0
 11 12  1  0
 11 13  1  0
 13 14  1  0
 13 15  1  0
 15 16  1  0
 15 17  1  0
 17 18  1  0
 17 19  1  0
 17 20  1  0
 20 21  1  0
  9  2  1  0
 13  5  1  0
 15  7  1  0
 20  9  1  0
 20 11  1  0
M  END
>  <Energy>  (1) 
13.700087557595847

>  <Real charge>  (1) 
0

>  <Mult>  (1) 
1

$$$$
