mol_576 38
     RDKit          3D

 17 16  0  0  0  0  0  0  0  0999 V2000
   -2.6753    0.3368    0.5432 C   0  0  0  0  0  0  0  0  0  0  0  0
   -1.4440   -0.4032    0.0456 C   0  0  0  0  0  0  0  0  0  0  0  0
   -0.1771    0.4251    0.2403 C   0  0  0  0  0  0  0  0  0  0  0  0
    1.0607   -0.3133   -0.2575 C   0  0  0  0  0  0  0  0  0  0  0  0
    2.1998    0.5297   -0.0388 O   0  0  0  0  0  0  0  0  0  0  0  0
    3.3747   -0.0140   -0.4414 C   0  0  0  0  0  0  0  0  0  0  0  0
    3.5335   -1.1113   -0.9510 O   0  0  0  0  0  0  0  0  0  0  0  0
   -2.5922    0.5629    1.6111 H   0  0  0  0  0  0  0  0  0  0  0  0
   -2.8126    1.2783    0.0019 H   0  0  0  0  0  0  0  0  0  0  0  0
   -3.5708   -0.2745    0.3941 H   0  0  0  0  0  0  0  0  0  0  0  0
   -1.3538   -1.3539    0.5838 H   0  0  0  0  0  0  0  0  0  0  0  0
   -1.5730   -0.6424   -1.0164 H   0  0  0  0  0  0  0  0  0  0  0  0
   -0.2647    1.3832   -0.2872 H   0  0  0  0  0  0  0  0  0  0  0  0
   -0.0472    0.6774    1.3002 H   0  0  0  0  0  0  0  0  0  0  0  0
    0.9657   -0.5288   -1.3283 H   0  0  0  0  0  0  0  0  0  0  0  0
    1.1882   -1.2510    0.2961 H   0  0  0  0  0  0  0  0  0  0  0  0
    4.1880    0.6991   -0.2358 H   0  0  0  0  0  0  0  0  0  0  0  0
  1  2  1  0
  2  3  1  0
  3  4  1  0
  4  5  1  0
  5  6  1  0
  6  7  2  0
  1  8  1  0
  1  9  1  0
  1 10  1  0
  2 11  1  0
  2 12  1  0
  3 13  1  0
  3 14  1  0
  4 15  1  0
  4 16  1  0
  6 17  1  0
M  END
>  <Energy>  (1) 
-11.049020543907933

>  <Real charge>  (1) 
0

>  <Mult>  (1) 
1

$$$$
mol_576 181
     RDKit          3D

 17 16  0  0  0  0  0  0  0  0999 V2000
   -2.6126    0.1752   -0.0183 C   0  0  0  0  0  0  0  0  0  0  0  0
   -1.1717    0.3475    0.4364 C   0  0  0  0  0  0  0  0  0  0  0  0
   -0.2727   -0.7564   -0.1251 C   0  0  0  0  0  0  0  0  0  0  0  0
    1.1722   -0.6211    0.3486 C   0  0  0  0  0  0  0  0  0  0  0  0
    1.7220    0.6004   -0.1611 O   0  0  0  0  0  0  0  0  0  0  0  0
    3.0050    0.8281    0.2131 C   0  0  0  0  0  0  0  0  0  0  0  0
    3.6981    0.1098    0.9149 O   0  0  0  0  0  0  0  0  0  0  0  0
   -2.6869    0.2154   -1.1097 H   0  0  0  0  0  0  0  0  0  0  0  0
   -3.0186   -0.7838    0.3191 H   0  0  0  0  0  0  0  0  0  0  0  0
   -3.2382    0.9728    0.3945 H   0  0  0  0  0  0  0  0  0  0  0  0
   -1.1367    0.3334    1.5319 H   0  0  0  0  0  0  0  0  0  0  0  0
   -0.8115    1.3307    0.1129 H   0  0  0  0  0  0  0  0  0  0  0  0
   -0.2998   -0.7131   -1.2208 H   0  0  0  0  0  0  0  0  0  0  0  0
   -0.6582   -1.7365    0.1789 H   0  0  0  0  0  0  0  0  0  0  0  0
    1.2122   -0.6189    1.4443 H   0  0  0  0  0  0  0  0  0  0  0  0
    1.7572   -1.4660   -0.0332 H   0  0  0  0  0  0  0  0  0  0  0  0
    3.3402    1.7827   -0.2211 H   0  0  0  0  0  0  0  0  0  0  0  0
  1  2  1  0
  2  3  1  0
  3  4  1  0
  4  5  1  0
  5  6  1  0
  6  7  2  0
  1  8  1  0
  1  9  1  0
  1 10  1  0
  2 11  1  0
  2 12  1  0
  3 13  1  0
  3 14  1  0
  4 15  1  0
  4 16  1  0
  6 17  1  0
M  END
>  <Energy>  (2) 
-10.762857161703687

>  <Real charge>  (2) 
0

>  <Mult>  (2) 
1

$$$$
mol_576 196
     RDKit          3D

 17 16  0  0  0  0  0  0  0  0999 V2000
   -2.5629    0.1232   -0.1481 C   0  0  0  0  0  0  0  0  0  0  0  0
   -1.2940   -0.6549    0.1613 C   0  0  0  0  0  0  0  0  0  0  0  0
   -0.0858    0.2698    0.2808 C   0  0  0  0  0  0  0  0  0  0  0  0
    1.1882   -0.5092    0.5939 C   0  0  0  0  0  0  0  0  0  0  0  0
    2.2925    0.3957    0.7505 O   0  0  0  0  0  0  0  0  0  0  0  0
    2.9479    0.7237   -0.3903 C   0  0  0  0  0  0  0  0  0  0  0  0
    2.6914    0.3391   -1.5193 O   0  0  0  0  0  0  0  0  0  0  0  0
   -2.7814    0.8479    0.6427 H   0  0  0  0  0  0  0  0  0  0  0  0
   -2.4699    0.6649   -1.0949 H   0  0  0  0  0  0  0  0  0  0  0  0
   -3.4153   -0.5585   -0.2292 H   0  0  0  0  0  0  0  0  0  0  0  0
   -1.4320   -1.2104    1.0963 H   0  0  0  0  0  0  0  0  0  0  0  0
   -1.1217   -1.3919   -0.6317 H   0  0  0  0  0  0  0  0  0  0  0  0
   -0.2549    1.0168    1.0664 H   0  0  0  0  0  0  0  0  0  0  0  0
    0.0461    0.8375   -0.6483 H   0  0  0  0  0  0  0  0  0  0  0  0
    1.4025   -1.2643   -0.1722 H   0  0  0  0  0  0  0  0  0  0  0  0
    1.0785   -1.0416    1.5450 H   0  0  0  0  0  0  0  0  0  0  0  0
    3.7707    1.4121   -0.1423 H   0  0  0  0  0  0  0  0  0  0  0  0
  1  2  1  0
  2  3  1  0
  3  4  1  0
  4  5  1  0
  5  6  1  0
  6  7  2  0
  1  8  1  0
  1  9  1  0
  1 10  1  0
  2 11  1  0
  2 12  1  0
  3 13  1  0
  3 14  1  0
  4 15  1  0
  4 16  1  0
  6 17  1  0
M  END
>  <Energy>  (3) 
-10.662985570283125

>  <Real charge>  (3) 
0

>  <Mult>  (3) 
1

$$$$
mol_576 123
     RDKit          3D

 17 16  0  0  0  0  0  0  0  0999 V2000
   -2.3820    0.5593    0.5856 C   0  0  0  0  0  0  0  0  0  0  0  0
   -1.0939    0.3335   -0.1905 C   0  0  0  0  0  0  0  0  0  0  0  0
   -0.1747   -0.6565    0.5283 C   0  0  0  0  0  0  0  0  0  0  0  0
    1.1072   -0.9297   -0.2565 C   0  0  0  0  0  0  0  0  0  0  0  0
    1.8620    0.2750   -0.4568 O   0  0  0  0  0  0  0  0  0  0  0  0
    2.6993    0.6173    0.5530 C   0  0  0  0  0  0  0  0  0  0  0  0
    2.8678    0.0162    1.6012 O   0  0  0  0  0  0  0  0  0  0  0  0
   -3.0248    1.2686    0.0549 H   0  0  0  0  0  0  0  0  0  0  0  0
   -2.1744    0.9671    1.5801 H   0  0  0  0  0  0  0  0  0  0  0  0
   -2.9366   -0.3768    0.7065 H   0  0  0  0  0  0  0  0  0  0  0  0
   -0.5851    1.2951   -0.3225 H   0  0  0  0  0  0  0  0  0  0  0  0
   -1.3383   -0.0449   -1.1898 H   0  0  0  0  0  0  0  0  0  0  0  0
    0.0763   -0.2526    1.5161 H   0  0  0  0  0  0  0  0  0  0  0  0
   -0.7031   -1.6039    0.6859 H   0  0  0  0  0  0  0  0  0  0  0  0
    0.8628   -1.3236   -1.2491 H   0  0  0  0  0  0  0  0  0  0  0  0
    1.7164   -1.6923    0.2435 H   0  0  0  0  0  0  0  0  0  0  0  0
    3.2210    1.5484    0.2822 H   0  0  0  0  0  0  0  0  0  0  0  0
  1  2  1  0
  2  3  1  0
  3  4  1  0
  4  5  1  0
  5  6  1  0
  6  7  2  0
  1  8  1  0
  1  9  1  0
  1 10  1  0
  2 11  1  0
  2 12  1  0
  3 13  1  0
  3 14  1  0
  4 15  1  0
  4 16  1  0
  6 17  1  0
M  END
>  <Energy>  (4) 
-10.419415940509134

>  <Real charge>  (4) 
0

>  <Mult>  (4) 
1

$$$$
mol_576 159
     RDKit          3D

 17 16  0  0  0  0  0  0  0  0999 V2000
   -2.1631    0.5556   -0.5385 C   0  0  0  0  0  0  0  0  0  0  0  0
   -1.6004   -0.6153    0.2522 C   0  0  0  0  0  0  0  0  0  0  0  0
   -0.1595   -0.9626   -0.1177 C   0  0  0  0  0  0  0  0  0  0  0  0
    0.8426    0.1346    0.2276 C   0  0  0  0  0  0  0  0  0  0  0  0
    2.1565   -0.3539   -0.0797 O   0  0  0  0  0  0  0  0  0  0  0  0
    3.1513    0.5261    0.1926 C   0  0  0  0  0  0  0  0  0  0  0  0
    3.0255    1.6478    0.6560 O   0  0  0  0  0  0  0  0  0  0  0  0
   -3.2217    0.6969   -0.2980 H   0  0  0  0  0  0  0  0  0  0  0  0
   -2.0812    0.3783   -1.6155 H   0  0  0  0  0  0  0  0  0  0  0  0
   -1.6424    1.4877   -0.3000 H   0  0  0  0  0  0  0  0  0  0  0  0
   -1.6681   -0.3974    1.3243 H   0  0  0  0  0  0  0  0  0  0  0  0
   -2.2287   -1.4948    0.0674 H   0  0  0  0  0  0  0  0  0  0  0  0
   -0.0895   -1.1983   -1.1871 H   0  0  0  0  0  0  0  0  0  0  0  0
    0.1300   -1.8836    0.4044 H   0  0  0  0  0  0  0  0  0  0  0  0
    0.6484    1.0345   -0.3660 H   0  0  0  0  0  0  0  0  0  0  0  0
    0.7837    0.3762    1.2953 H   0  0  0  0  0  0  0  0  0  0  0  0
    4.1167    0.0681   -0.0729 H   0  0  0  0  0  0  0  0  0  0  0  0
  1  2  1  0
  2  3  1  0
  3  4  1  0
  4  5  1  0
  5  6  1  0
  6  7  2  0
  1  8  1  0
  1  9  1  0
  1 10  1  0
  2 11  1  0
  2 12  1  0
  3 13  1  0
  3 14  1  0
  4 15  1  0
  4 16  1  0
  6 17  1  0
M  END
>  <Energy>  (5) 
-10.292212113962908

>  <Real charge>  (5) 
0

>  <Mult>  (5) 
1

$$$$
mol_576 117
     RDKit          3D

 17 16  0  0  0  0  0  0  0  0999 V2000
   -2.0445    0.4538   -0.1599 C   0  0  0  0  0  0  0  0  0  0  0  0
   -1.2728   -0.8533   -0.2529 C   0  0  0  0  0  0  0  0  0  0  0  0
   -0.0701   -0.9199    0.6933 C   0  0  0  0  0  0  0  0  0  0  0  0
    1.0142    0.1181    0.4124 C   0  0  0  0  0  0  0  0  0  0  0  0
    1.4898   -0.0470   -0.9291 O   0  0  0  0  0  0  0  0  0  0  0  0
    2.4446    0.8446   -1.2916 C   0  0  0  0  0  0  0  0  0  0  0  0
    2.9123    1.7339   -0.5993 O   0  0  0  0  0  0  0  0  0  0  0  0
   -2.3539    0.6554    0.8704 H   0  0  0  0  0  0  0  0  0  0  0  0
   -1.4463    1.2984   -0.5144 H   0  0  0  0  0  0  0  0  0  0  0  0
   -2.9451    0.4029   -0.7803 H   0  0  0  0  0  0  0  0  0  0  0  0
   -1.9525   -1.6777   -0.0058 H   0  0  0  0  0  0  0  0  0  0  0  0
   -0.9509   -1.0131   -1.2883 H   0  0  0  0  0  0  0  0  0  0  0  0
    0.3708   -1.9200    0.5971 H   0  0  0  0  0  0  0  0  0  0  0  0
   -0.4101   -0.8153    1.7302 H   0  0  0  0  0  0  0  0  0  0  0  0
    1.8459   -0.0365    1.1100 H   0  0  0  0  0  0  0  0  0  0  0  0
    0.6232    1.1324    0.5496 H   0  0  0  0  0  0  0  0  0  0  0  0
    2.7455    0.6434   -2.3314 H   0  0  0  0  0  0  0  0  0  0  0  0
  1  2  1  0
  2  3  1  0
  3  4  1  0
  4  5  1  0
  5  6  1  0
  6  7  2  0
  1  8  1  0
  1  9  1  0
  1 10  1  0
  2 11  1  0
  2 12  1  0
  3 13  1  0
  3 14  1  0
  4 15  1  0
  4 16  1  0
  6 17  1  0
M  END
>  <Energy>  (6) 
-10.091311898624312

>  <Real charge>  (6) 
0

>  <Mult>  (6) 
1

$$$$
