mol_1026 854
     RDKit          3D

 45 46  0  0  0  0  0  0  0  0999 V2000
   -0.2930   -2.6923   -2.7955 O   0  0  0  0  0  0  0  0  0  0  0  0
   -1.5065   -1.9368   -2.7549 C   0  0  0  0  0  0  0  0  0  0  0  0
   -1.7852   -1.4625   -1.3229 C   0  0  0  0  0  0  0  0  0  0  0  0
   -0.7674   -0.5022   -0.9713 O   0  0  0  0  0  0  0  0  0  0  0  0
   -0.9099    0.0093    0.3533 C   0  0  0  0  0  0  0  0  0  0  0  0
    0.1000    1.0015    0.5262 O   0  0  0  0  0  0  0  0  0  0  0  0
    1.1959    0.6132    1.3641 C   0  0  0  0  0  0  0  0  0  0  0  0
    0.7546    0.5296    2.8412 C   0  0  0  0  0  0  0  0  0  0  0  0
    0.1074    1.7348    3.2638 O   0  0  0  0  0  0  0  0  0  0  0  0
    1.7376   -0.6454    0.9250 O   0  0  0  0  0  0  0  0  0  0  0  0
    2.8963   -0.3805    0.1055 C   0  0  0  0  0  0  0  0  0  0  0  0
    2.8001   -1.2075   -1.1774 C   0  0  0  0  0  0  0  0  0  0  0  0
    1.7249   -0.7807   -2.0131 O   0  0  0  0  0  0  0  0  0  0  0  0
    2.9470    1.1290   -0.1319 C   0  0  0  0  0  0  0  0  0  0  0  0
    4.2781    1.6267   -0.2639 O   0  0  0  0  0  0  0  0  0  0  0  0
    2.3052    1.6592    1.1418 C   0  0  0  0  0  0  0  0  0  0  0  0
    3.2807    1.6846    2.1943 O   0  0  0  0  0  0  0  0  0  0  0  0
   -2.2693    0.6972    0.5601 C   0  0  0  0  0  0  0  0  0  0  0  0
   -2.4664    1.0985    1.9283 O   0  0  0  0  0  0  0  0  0  0  0  0
   -3.3947   -0.2723    0.1969 C   0  0  0  0  0  0  0  0  0  0  0  0
   -4.6549    0.4180    0.2407 O   0  0  0  0  0  0  0  0  0  0  0  0
   -3.1935   -0.8578   -1.2004 C   0  0  0  0  0  0  0  0  0  0  0  0
   -3.3907    0.1831   -2.1669 O   0  0  0  0  0  0  0  0  0  0  0  0
    0.4403   -2.0440   -2.7385 H   0  0  0  0  0  0  0  0  0  0  0  0
   -2.3087   -2.5909   -3.1096 H   0  0  0  0  0  0  0  0  0  0  0  0
   -1.3992   -1.0980   -3.4505 H   0  0  0  0  0  0  0  0  0  0  0  0
   -1.6781   -2.3136   -0.6379 H   0  0  0  0  0  0  0  0  0  0  0  0
   -0.7956   -0.8145    1.0672 H   0  0  0  0  0  0  0  0  0  0  0  0
    1.5933    0.3091    3.5107 H   0  0  0  0  0  0  0  0  0  0  0  0
    0.0379   -0.2841    2.9878 H   0  0  0  0  0  0  0  0  0  0  0  0
    0.8244    2.3640    3.4753 H   0  0  0  0  0  0  0  0  0  0  0  0
    3.7749   -0.7165    0.6696 H   0  0  0  0  0  0  0  0  0  0  0  0
    3.7235   -1.1267   -1.7584 H   0  0  0  0  0  0  0  0  0  0  0  0
    2.6264   -2.2618   -0.9398 H   0  0  0  0  0  0  0  0  0  0  0  0
    0.9527   -0.6054   -1.4279 H   0  0  0  0  0  0  0  0  0  0  0  0
    2.3576    1.4401   -1.0016 H   0  0  0  0  0  0  0  0  0  0  0  0
    4.5687    1.4209   -1.1723 H   0  0  0  0  0  0  0  0  0  0  0  0
    1.9267    2.6785    1.0136 H   0  0  0  0  0  0  0  0  0  0  0  0
    4.1135    1.9594    1.7531 H   0  0  0  0  0  0  0  0  0  0  0  0
   -2.3400    1.6098   -0.0439 H   0  0  0  0  0  0  0  0  0  0  0  0
   -1.6555    1.5744    2.2154 H   0  0  0  0  0  0  0  0  0  0  0  0
   -3.4490   -1.0788    0.9385 H   0  0  0  0  0  0  0  0  0  0  0  0
   -4.6449    0.9052    1.0908 H   0  0  0  0  0  0  0  0  0  0  0  0
   -3.9572   -1.6172   -1.4032 H   0  0  0  0  0  0  0  0  0  0  0  0
   -4.2078    0.6430   -1.8813 H   0  0  0  0  0  0  0  0  0  0  0  0
  1  2  1  0
  2  3  1  0
  3  4  1  0
  4  5  1  0
  5  6  1  0
  6  7  1  0
  7  8  1  0
  8  9  1  0
  7 10  1  0
 10 11  1  0
 11 12  1  0
 12 13  1  0
 11 14  1  0
 14 15  1  0
 14 16  1  0
 16 17  1  0
  5 18  1  0
 18 19  1  0
 18 20  1  0
 20 21  1  0
 20 22  1  0
 22 23  1  0
 16  7  1  0
 22  3  1  0
  1 24  1  0
  2 25  1  0
  2 26  1  0
  3 27  1  0
  5 28  1  0
  8 29  1  0
  8 30  1  0
  9 31  1  0
 11 32  1  0
 12 33  1  0
 12 34  1  0
 13 35  1  0
 14 36  1  0
 15 37  1  0
 16 38  1  0
 17 39  1  0
 18 40  1  0
 19 41  1  0
 20 42  1  0
 21 43  1  0
 22 44  1  0
 23 45  1  0
M  END
>  <Energy>  (1) 
192.45420309841276

>  <Real charge>  (1) 
0

>  <Mult>  (1) 
1

$$$$
