mol_767 321
     RDKit          3D

 24 23  0  0  0  0  0  0  0  0999 V2000
   -2.6422    1.4422   -0.1511 C   0  0  0  0  0  0  0  0  0  0  0  0
   -1.5699    0.3874   -0.3838 C   0  0  0  0  0  0  0  0  0  0  0  0
   -0.4929    0.4436    0.7017 C   0  0  0  0  0  0  0  0  0  0  0  0
    0.6430   -0.5926    0.5638 C   0  0  0  0  0  0  0  0  0  0  0  0
    0.1160   -2.0203    0.7588 C   0  0  0  0  0  0  0  0  0  0  0  0
    1.5546   -0.3308    1.6411 O   0  0  0  0  0  0  0  0  0  0  0  0
    1.4219   -0.5037   -0.7659 C   0  0  0  0  0  0  0  0  0  0  0  0
    2.0404    0.8616   -1.0446 C   0  0  0  0  0  0  0  0  0  0  0  0
   -3.1373    1.2923    0.8137 H   0  0  0  0  0  0  0  0  0  0  0  0
   -3.4035    1.3878   -0.9355 H   0  0  0  0  0  0  0  0  0  0  0  0
   -2.2119    2.4487   -0.1648 H   0  0  0  0  0  0  0  0  0  0  0  0
   -1.1272    0.5529   -1.3714 H   0  0  0  0  0  0  0  0  0  0  0  0
   -2.0465   -0.5981   -0.3987 H   0  0  0  0  0  0  0  0  0  0  0  0
   -0.0623    1.4531    0.7378 H   0  0  0  0  0  0  0  0  0  0  0  0
   -0.9671    0.3155    1.6850 H   0  0  0  0  0  0  0  0  0  0  0  0
   -0.4202   -2.1113    1.7103 H   0  0  0  0  0  0  0  0  0  0  0  0
   -0.5539   -2.3267   -0.0500 H   0  0  0  0  0  0  0  0  0  0  0  0
    0.9433   -2.7383    0.8037 H   0  0  0  0  0  0  0  0  0  0  0  0
    2.2832   -0.9721    1.5818 H   0  0  0  0  0  0  0  0  0  0  0  0
    2.2436   -1.2318   -0.7464 H   0  0  0  0  0  0  0  0  0  0  0  0
    0.7775   -0.7833   -1.6074 H   0  0  0  0  0  0  0  0  0  0  0  0
    2.6388    0.8193   -1.9606 H   0  0  0  0  0  0  0  0  0  0  0  0
    2.6987    1.1763   -0.2292 H   0  0  0  0  0  0  0  0  0  0  0  0
    1.2736    1.6282   -1.1882 H   0  0  0  0  0  0  0  0  0  0  0  0
  1  2  1  0
  2  3  1  0
  3  4  1  0
  4  5  1  0
  4  6  1  0
  4  7  1  0
  7  8  1  0
  1  9  1  0
  1 10  1  0
  1 11  1  0
  2 12  1  0
  2 13  1  0
  3 14  1  0
  3 15  1  0
  5 16  1  0
  5 17  1  0
  5 18  1  0
  6 19  1  0
  7 20  1  0
  7 21  1  0
  8 22  1  0
  8 23  1  0
  8 24  1  0
M  END
>  <Energy>  (1) 
9.688503458376022

>  <Real charge>  (1) 
0

>  <Mult>  (1) 
1

$$$$
mol_767 179
     RDKit          3D

 24 23  0  0  0  0  0  0  0  0999 V2000
    2.9442   -0.7553   -0.4291 C   0  0  0  0  0  0  0  0  0  0  0  0
    1.6102   -0.0825   -0.7183 C   0  0  0  0  0  0  0  0  0  0  0  0
    0.7029   -0.0913    0.5175 C   0  0  0  0  0  0  0  0  0  0  0  0
   -0.6393    0.6501    0.3282 C   0  0  0  0  0  0  0  0  0  0  0  0
   -1.4293    0.6288    1.6436 C   0  0  0  0  0  0  0  0  0  0  0  0
   -0.3607    2.0254    0.0278 O   0  0  0  0  0  0  0  0  0  0  0  0
   -1.4955    0.1195   -0.8398 C   0  0  0  0  0  0  0  0  0  0  0  0
   -1.8654   -1.3546   -0.7649 C   0  0  0  0  0  0  0  0  0  0  0  0
    3.5756   -0.7442   -1.3230 H   0  0  0  0  0  0  0  0  0  0  0  0
    3.4804   -0.2362    0.3717 H   0  0  0  0  0  0  0  0  0  0  0  0
    2.8002   -1.7978   -0.1277 H   0  0  0  0  0  0  0  0  0  0  0  0
    1.1287   -0.6093   -1.5487 H   0  0  0  0  0  0  0  0  0  0  0  0
    1.7951    0.9465   -1.0461 H   0  0  0  0  0  0  0  0  0  0  0  0
    1.2546    0.3878    1.3380 H   0  0  0  0  0  0  0  0  0  0  0  0
    0.5209   -1.1271    0.8288 H   0  0  0  0  0  0  0  0  0  0  0  0
   -0.8713    1.1325    2.4416 H   0  0  0  0  0  0  0  0  0  0  0  0
   -2.3742    1.1742    1.5398 H   0  0  0  0  0  0  0  0  0  0  0  0
   -1.6493   -0.3903    1.9755 H   0  0  0  0  0  0  0  0  0  0  0  0
    0.1794    2.3880    0.7508 H   0  0  0  0  0  0  0  0  0  0  0  0
   -2.4195    0.7104   -0.9016 H   0  0  0  0  0  0  0  0  0  0  0  0
   -0.9846    0.3125   -1.7916 H   0  0  0  0  0  0  0  0  0  0  0  0
   -2.4430   -1.5802    0.1358 H   0  0  0  0  0  0  0  0  0  0  0  0
   -0.9785   -1.9943   -0.7797 H   0  0  0  0  0  0  0  0  0  0  0  0
   -2.4816   -1.6266   -1.6284 H   0  0  0  0  0  0  0  0  0  0  0  0
  1  2  1  0
  2  3  1  0
  3  4  1  0
  4  5  1  0
  4  6  1  0
  4  7  1  0
  7  8  1  0
  1  9  1  0
  1 10  1  0
  1 11  1  0
  2 12  1  0
  2 13  1  0
  3 14  1  0
  3 15  1  0
  5 16  1  0
  5 17  1  0
  5 18  1  0
  6 19  1  0
  7 20  1  0
  7 21  1  0
  8 22  1  0
  8 23  1  0
  8 24  1  0
M  END
>  <Energy>  (2) 
9.711639455284757

>  <Real charge>  (2) 
0

>  <Mult>  (2) 
1

$$$$
mol_767 246
     RDKit          3D

 24 23  0  0  0  0  0  0  0  0999 V2000
    3.1527   -0.9188    0.0633 C   0  0  0  0  0  0  0  0  0  0  0  0
    1.8092   -0.3855    0.5398 C   0  0  0  0  0  0  0  0  0  0  0  0
    0.8376   -0.1986   -0.6317 C   0  0  0  0  0  0  0  0  0  0  0  0
   -0.5181    0.4462   -0.2537 C   0  0  0  0  0  0  0  0  0  0  0  0
   -1.3385    0.6656   -1.5322 C   0  0  0  0  0  0  0  0  0  0  0  0
   -0.2706    1.7283    0.3306 O   0  0  0  0  0  0  0  0  0  0  0  0
   -1.2859   -0.4084    0.7772 C   0  0  0  0  0  0  0  0  0  0  0  0
   -2.6627    0.1311    1.1533 C   0  0  0  0  0  0  0  0  0  0  0  0
    3.6242   -0.2242   -0.6393 H   0  0  0  0  0  0  0  0  0  0  0  0
    3.0361   -1.8864   -0.4351 H   0  0  0  0  0  0  0  0  0  0  0  0
    3.8296   -1.0534    0.9128 H   0  0  0  0  0  0  0  0  0  0  0  0
    1.9687    0.5666    1.0578 H   0  0  0  0  0  0  0  0  0  0  0  0
    1.3965   -1.0912    1.2681 H   0  0  0  0  0  0  0  0  0  0  0  0
    0.6613   -1.1691   -1.1132 H   0  0  0  0  0  0  0  0  0  0  0  0
    1.3346    0.4394   -1.3752 H   0  0  0  0  0  0  0  0  0  0  0  0
   -1.6431   -0.2848   -1.9821 H   0  0  0  0  0  0  0  0  0  0  0  0
   -2.2315    1.2691   -1.3382 H   0  0  0  0  0  0  0  0  0  0  0  0
   -0.7591    1.2266   -2.2750 H   0  0  0  0  0  0  0  0  0  0  0  0
    0.2200    2.2634   -0.3164 H   0  0  0  0  0  0  0  0  0  0  0  0
   -1.3986   -1.4335    0.4043 H   0  0  0  0  0  0  0  0  0  0  0  0
   -0.7101   -0.4613    1.7087 H   0  0  0  0  0  0  0  0  0  0  0  0
   -3.3555    0.0868    0.3080 H   0  0  0  0  0  0  0  0  0  0  0  0
   -3.0917   -0.4736    1.9592 H   0  0  0  0  0  0  0  0  0  0  0  0
   -2.6052    1.1658    1.5047 H   0  0  0  0  0  0  0  0  0  0  0  0
  1  2  1  0
  2  3  1  0
  3  4  1  0
  4  5  1  0
  4  6  1  0
  4  7  1  0
  7  8  1  0
  1  9  1  0
  1 10  1  0
  1 11  1  0
  2 12  1  0
  2 13  1  0
  3 14  1  0
  3 15  1  0
  5 16  1  0
  5 17  1  0
  5 18  1  0
  6 19  1  0
  7 20  1  0
  7 21  1  0
  8 22  1  0
  8 23  1  0
  8 24  1  0
M  END
>  <Energy>  (3) 
9.966265799615364

>  <Real charge>  (3) 
0

>  <Mult>  (3) 
1

$$$$
mol_767 434
     RDKit          3D

 24 23  0  0  0  0  0  0  0  0999 V2000
   -3.0917    0.4162   -0.5352 C   0  0  0  0  0  0  0  0  0  0  0  0
   -1.9065    0.2094    0.3970 C   0  0  0  0  0  0  0  0  0  0  0  0
   -0.6095   -0.0154   -0.3917 C   0  0  0  0  0  0  0  0  0  0  0  0
    0.6635   -0.1161    0.4781 C   0  0  0  0  0  0  0  0  0  0  0  0
    0.5381   -1.2086    1.5483 C   0  0  0  0  0  0  0  0  0  0  0  0
    0.8408    1.1346    1.1495 O   0  0  0  0  0  0  0  0  0  0  0  0
    1.9169   -0.3994   -0.3831 C   0  0  0  0  0  0  0  0  0  0  0  0
    2.2275    0.6626   -1.4321 C   0  0  0  0  0  0  0  0  0  0  0  0
   -3.2373   -0.4539   -1.1833 H   0  0  0  0  0  0  0  0  0  0  0  0
   -2.9443    1.2967   -1.1688 H   0  0  0  0  0  0  0  0  0  0  0  0
   -4.0080    0.5653    0.0446 H   0  0  0  0  0  0  0  0  0  0  0  0
   -1.8086    1.0853    1.0479 H   0  0  0  0  0  0  0  0  0  0  0  0
   -2.1172   -0.6544    1.0363 H   0  0  0  0  0  0  0  0  0  0  0  0
   -0.7128   -0.9229   -0.9999 H   0  0  0  0  0  0  0  0  0  0  0  0
   -0.5046    0.8292   -1.0838 H   0  0  0  0  0  0  0  0  0  0  0  0
   -0.2284   -0.9596    2.2897 H   0  0  0  0  0  0  0  0  0  0  0  0
    1.4725   -1.3088    2.1133 H   0  0  0  0  0  0  0  0  0  0  0  0
    0.3009   -2.1807    1.1043 H   0  0  0  0  0  0  0  0  0  0  0  0
    1.6459    1.0729    1.6916 H   0  0  0  0  0  0  0  0  0  0  0  0
    2.7940   -0.4661    0.2740 H   0  0  0  0  0  0  0  0  0  0  0  0
    1.8163   -1.3718   -0.8806 H   0  0  0  0  0  0  0  0  0  0  0  0
    1.4584    0.6972   -2.2089 H   0  0  0  0  0  0  0  0  0  0  0  0
    3.1783    0.4320   -1.9241 H   0  0  0  0  0  0  0  0  0  0  0  0
    2.3159    1.6564   -0.9831 H   0  0  0  0  0  0  0  0  0  0  0  0
  1  2  1  0
  2  3  1  0
  3  4  1  0
  4  5  1  0
  4  6  1  0
  4  7  1  0
  7  8  1  0
  1  9  1  0
  1 10  1  0
  1 11  1  0
  2 12  1  0
  2 13  1  0
  3 14  1  0
  3 15  1  0
  5 16  1  0
  5 17  1  0
  5 18  1  0
  6 19  1  0
  7 20  1  0
  7 21  1  0
  8 22  1  0
  8 23  1  0
  8 24  1  0
M  END
>  <Energy>  (4) 
9.971327014303755

>  <Real charge>  (4) 
0

>  <Mult>  (4) 
1

$$$$
mol_767 95
     RDKit          3D

 24 23  0  0  0  0  0  0  0  0999 V2000
    3.3133    0.3957    0.3255 C   0  0  0  0  0  0  0  0  0  0  0  0
    2.0522   -0.1123   -0.3588 C   0  0  0  0  0  0  0  0  0  0  0  0
    0.7944    0.3033    0.4139 C   0  0  0  0  0  0  0  0  0  0  0  0
   -0.5431   -0.0779   -0.2666 C   0  0  0  0  0  0  0  0  0  0  0  0
   -0.6737   -1.5933   -0.4451 C   0  0  0  0  0  0  0  0  0  0  0  0
   -0.5802    0.5088   -1.5700 O   0  0  0  0  0  0  0  0  0  0  0  0
   -1.7101    0.4969    0.5708 C   0  0  0  0  0  0  0  0  0  0  0  0
   -3.0962    0.2876   -0.0293 C   0  0  0  0  0  0  0  0  0  0  0  0
    3.3957   -0.0028    1.3417 H   0  0  0  0  0  0  0  0  0  0  0  0
    4.2001    0.0836   -0.2349 H   0  0  0  0  0  0  0  0  0  0  0  0
    3.3158    1.4889    0.3831 H   0  0  0  0  0  0  0  0  0  0  0  0
    2.1134   -1.2031   -0.4294 H   0  0  0  0  0  0  0  0  0  0  0  0
    2.0196    0.2825   -1.3802 H   0  0  0  0  0  0  0  0  0  0  0  0
    0.8305   -0.1299    1.4218 H   0  0  0  0  0  0  0  0  0  0  0  0
    0.8266    1.3945    0.5355 H   0  0  0  0  0  0  0  0  0  0  0  0
   -0.6472   -2.1147    0.5169 H   0  0  0  0  0  0  0  0  0  0  0  0
   -1.6038   -1.8568   -0.9596 H   0  0  0  0  0  0  0  0  0  0  0  0
    0.1235   -1.9920   -1.0811 H   0  0  0  0  0  0  0  0  0  0  0  0
   -0.4967    1.4721   -1.4669 H   0  0  0  0  0  0  0  0  0  0  0  0
   -1.6920    0.0685    1.5805 H   0  0  0  0  0  0  0  0  0  0  0  0
   -1.5696    1.5802    0.6808 H   0  0  0  0  0  0  0  0  0  0  0  0
   -3.8458    0.8056    0.5781 H   0  0  0  0  0  0  0  0  0  0  0  0
   -3.1576    0.6857   -1.0465 H   0  0  0  0  0  0  0  0  0  0  0  0
   -3.3693   -0.7711   -0.0512 H   0  0  0  0  0  0  0  0  0  0  0  0
  1  2  1  0
  2  3  1  0
  3  4  1  0
  4  5  1  0
  4  6  1  0
  4  7  1  0
  7  8  1  0
  1  9  1  0
  1 10  1  0
  1 11  1  0
  2 12  1  0
  2 13  1  0
  3 14  1  0
  3 15  1  0
  5 16  1  0
  5 17  1  0
  5 18  1  0
  6 19  1  0
  7 20  1  0
  7 21  1  0
  8 22  1  0
  8 23  1  0
  8 24  1  0
M  END
>  <Energy>  (5) 
9.98167703502597

>  <Real charge>  (5) 
0

>  <Mult>  (5) 
1

$$$$
mol_767 447
     RDKit          3D

 24 23  0  0  0  0  0  0  0  0999 V2000
    3.1396   -0.4746    0.4672 C   0  0  0  0  0  0  0  0  0  0  0  0
    1.6397   -0.6850    0.3159 C   0  0  0  0  0  0  0  0  0  0  0  0
    1.0012    0.4449   -0.4950 C   0  0  0  0  0  0  0  0  0  0  0  0
   -0.5241    0.3253   -0.7233 C   0  0  0  0  0  0  0  0  0  0  0  0
   -0.8700   -0.9345   -1.5222 C   0  0  0  0  0  0  0  0  0  0  0  0
   -0.9066    1.4422   -1.5388 O   0  0  0  0  0  0  0  0  0  0  0  0
   -1.3056    0.3963    0.6065 C   0  0  0  0  0  0  0  0  0  0  0  0
   -2.8214    0.4633    0.4476 C   0  0  0  0  0  0  0  0  0  0  0  0
    3.3537    0.4660    0.9847 H   0  0  0  0  0  0  0  0  0  0  0  0
    3.5796   -1.2903    1.0495 H   0  0  0  0  0  0  0  0  0  0  0  0
    3.6330   -0.4503   -0.5097 H   0  0  0  0  0  0  0  0  0  0  0  0
    1.4702   -1.6497   -0.1733 H   0  0  0  0  0  0  0  0  0  0  0  0
    1.1935   -0.7391    1.3141 H   0  0  0  0  0  0  0  0  0  0  0  0
    1.2125    1.4048   -0.0039 H   0  0  0  0  0  0  0  0  0  0  0  0
    1.4995    0.5147   -1.4720 H   0  0  0  0  0  0  0  0  0  0  0  0
   -0.7389   -1.8452   -0.9300 H   0  0  0  0  0  0  0  0  0  0  0  0
   -1.9032   -0.9049   -1.8855 H   0  0  0  0  0  0  0  0  0  0  0  0
   -0.2414   -1.0103   -2.4172 H   0  0  0  0  0  0  0  0  0  0  0  0
   -0.7164    2.2554   -1.0404 H   0  0  0  0  0  0  0  0  0  0  0  0
   -0.9962    1.2948    1.1557 H   0  0  0  0  0  0  0  0  0  0  0  0
   -1.0638   -0.4658    1.2382 H   0  0  0  0  0  0  0  0  0  0  0  0
   -3.2170   -0.4478   -0.0103 H   0  0  0  0  0  0  0  0  0  0  0  0
   -3.2937    0.5700    1.4298 H   0  0  0  0  0  0  0  0  0  0  0  0
   -3.1241    1.3197   -0.1622 H   0  0  0  0  0  0  0  0  0  0  0  0
  1  2  1  0
  2  3  1  0
  3  4  1  0
  4  5  1  0
  4  6  1  0
  4  7  1  0
  7  8  1  0
  1  9  1  0
  1 10  1  0
  1 11  1  0
  2 12  1  0
  2 13  1  0
  3 14  1  0
  3 15  1  0
  5 16  1  0
  5 17  1  0
  5 18  1  0
  6 19  1  0
  7 20  1  0
  7 21  1  0
  8 22  1  0
  8 23  1  0
  8 24  1  0
M  END
>  <Energy>  (6) 
9.982801818899699

>  <Real charge>  (6) 
0

>  <Mult>  (6) 
1

$$$$
mol_767 316
     RDKit          3D

 24 23  0  0  0  0  0  0  0  0999 V2000
   -2.7085   -1.0601   -0.5535 C   0  0  0  0  0  0  0  0  0  0  0  0
   -1.4189   -0.2703   -0.7251 C   0  0  0  0  0  0  0  0  0  0  0  0
   -0.7207   -0.0507    0.6188 C   0  0  0  0  0  0  0  0  0  0  0  0
    0.6051    0.7397    0.5542 C   0  0  0  0  0  0  0  0  0  0  0  0
    0.3643    2.1851    0.1002 C   0  0  0  0  0  0  0  0  0  0  0  0
    1.1179    0.8329    1.8913 O   0  0  0  0  0  0  0  0  0  0  0  0
    1.6886    0.1009   -0.3411 C   0  0  0  0  0  0  0  0  0  0  0  0
    2.0407   -1.3424    0.0017 C   0  0  0  0  0  0  0  0  0  0  0  0
   -3.1947   -1.2067   -1.5231 H   0  0  0  0  0  0  0  0  0  0  0  0
   -3.4086   -0.5311    0.1010 H   0  0  0  0  0  0  0  0  0  0  0  0
   -2.5101   -2.0459   -0.1207 H   0  0  0  0  0  0  0  0  0  0  0  0
   -1.6575    0.6903   -1.1931 H   0  0  0  0  0  0  0  0  0  0  0  0
   -0.7641   -0.8162   -1.4121 H   0  0  0  0  0  0  0  0  0  0  0  0
   -0.5447   -1.0215    1.1004 H   0  0  0  0  0  0  0  0  0  0  0  0
   -1.4072    0.4709    1.3004 H   0  0  0  0  0  0  0  0  0  0  0  0
   -0.3892    2.6716    0.7302 H   0  0  0  0  0  0  0  0  0  0  0  0
    1.2789    2.7813    0.2015 H   0  0  0  0  0  0  0  0  0  0  0  0
    0.0358    2.2422   -0.9418 H   0  0  0  0  0  0  0  0  0  0  0  0
    1.1726   -0.0643    2.2608 H   0  0  0  0  0  0  0  0  0  0  0  0
    1.3865    0.1482   -1.3940 H   0  0  0  0  0  0  0  0  0  0  0  0
    2.6124    0.6878   -0.2524 H   0  0  0  0  0  0  0  0  0  0  0  0
    2.8439   -1.6938   -0.6545 H   0  0  0  0  0  0  0  0  0  0  0  0
    1.1862   -2.0102   -0.1393 H   0  0  0  0  0  0  0  0  0  0  0  0
    2.3913   -1.4373    1.0334 H   0  0  0  0  0  0  0  0  0  0  0  0
  1  2  1  0
  2  3  1  0
  3  4  1  0
  4  5  1  0
  4  6  1  0
  4  7  1  0
  7  8  1  0
  1  9  1  0
  1 10  1  0
  1 11  1  0
  2 12  1  0
  2 13  1  0
  3 14  1  0
  3 15  1  0
  5 16  1  0
  5 17  1  0
  5 18  1  0
  6 19  1  0
  7 20  1  0
  7 21  1  0
  8 22  1  0
  8 23  1  0
  8 24  1  0
M  END
>  <Energy>  (7) 
9.991372598367875

>  <Real charge>  (7) 
0

>  <Mult>  (7) 
1

$$$$
mol_767 99
     RDKit          3D

 24 23  0  0  0  0  0  0  0  0999 V2000
    2.9860    0.7736   -0.7027 C   0  0  0  0  0  0  0  0  0  0  0  0
    1.8534    0.6000    0.2989 C   0  0  0  0  0  0  0  0  0  0  0  0
    0.6335   -0.0664   -0.3504 C   0  0  0  0  0  0  0  0  0  0  0  0
   -0.5380   -0.3411    0.6197 C   0  0  0  0  0  0  0  0  0  0  0  0
   -1.0984    0.9511    1.2209 C   0  0  0  0  0  0  0  0  0  0  0  0
   -0.0502   -1.1245    1.7179 O   0  0  0  0  0  0  0  0  0  0  0  0
   -1.6519   -1.1716   -0.0575 C   0  0  0  0  0  0  0  0  0  0  0  0
   -2.3527   -0.5030   -1.2312 C   0  0  0  0  0  0  0  0  0  0  0  0
    2.6726    1.3991   -1.5446 H   0  0  0  0  0  0  0  0  0  0  0  0
    3.8448    1.2541   -0.2237 H   0  0  0  0  0  0  0  0  0  0  0  0
    3.3141   -0.1939   -1.0960 H   0  0  0  0  0  0  0  0  0  0  0  0
    2.2145   -0.0025    1.1397 H   0  0  0  0  0  0  0  0  0  0  0  0
    1.5834    1.5853    0.6932 H   0  0  0  0  0  0  0  0  0  0  0  0
    0.9637   -1.0207   -0.7819 H   0  0  0  0  0  0  0  0  0  0  0  0
    0.2924    0.5603   -1.1829 H   0  0  0  0  0  0  0  0  0  0  0  0
   -0.3766    1.4231    1.8963 H   0  0  0  0  0  0  0  0  0  0  0  0
   -1.3751    1.6761    0.4495 H   0  0  0  0  0  0  0  0  0  0  0  0
   -1.9842    0.7414    1.8318 H   0  0  0  0  0  0  0  0  0  0  0  0
    0.3320   -1.9421    1.3554 H   0  0  0  0  0  0  0  0  0  0  0  0
   -1.2337   -2.1291   -0.3953 H   0  0  0  0  0  0  0  0  0  0  0  0
   -2.4044   -1.4430    0.6951 H   0  0  0  0  0  0  0  0  0  0  0  0
   -3.1282   -1.1673   -1.6269 H   0  0  0  0  0  0  0  0  0  0  0  0
   -2.8395    0.4295   -0.9321 H   0  0  0  0  0  0  0  0  0  0  0  0
   -1.6573   -0.2883   -2.0473 H   0  0  0  0  0  0  0  0  0  0  0  0
  1  2  1  0
  2  3  1  0
  3  4  1  0
  4  5  1  0
  4  6  1  0
  4  7  1  0
  7  8  1  0
  1  9  1  0
  1 10  1  0
  1 11  1  0
  2 12  1  0
  2 13  1  0
  3 14  1  0
  3 15  1  0
  5 16  1  0
  5 17  1  0
  5 18  1  0
  6 19  1  0
  7 20  1  0
  7 21  1  0
  8 22  1  0
  8 23  1  0
  8 24  1  0
M  END
>  <Energy>  (8) 
9.99422507981478

>  <Real charge>  (8) 
0

>  <Mult>  (8) 
1

$$$$
mol_767 412
     RDKit          3D

 24 23  0  0  0  0  0  0  0  0999 V2000
    2.8830    0.9410   -0.2448 C   0  0  0  0  0  0  0  0  0  0  0  0
    1.5575    0.3560   -0.7113 C   0  0  0  0  0  0  0  0  0  0  0  0
    0.7635   -0.2265    0.4640 C   0  0  0  0  0  0  0  0  0  0  0  0
   -0.5836   -0.8801    0.0816 C   0  0  0  0  0  0  0  0  0  0  0  0
   -1.2514   -1.4324    1.3477 C   0  0  0  0  0  0  0  0  0  0  0  0
   -0.3179   -2.0208   -0.7469 O   0  0  0  0  0  0  0  0  0  0  0  0
   -1.5474    0.0445   -0.6922 C   0  0  0  0  0  0  0  0  0  0  0  0
   -1.9305    1.3331    0.0208 C   0  0  0  0  0  0  0  0  0  0  0  0
    3.5071    0.1741    0.2249 H   0  0  0  0  0  0  0  0  0  0  0  0
    2.7231    1.7461    0.4794 H   0  0  0  0  0  0  0  0  0  0  0  0
    3.4349    1.3537   -1.0951 H   0  0  0  0  0  0  0  0  0  0  0  0
    1.7592   -0.4197   -1.4575 H   0  0  0  0  0  0  0  0  0  0  0  0
    0.9843    1.1467   -1.2059 H   0  0  0  0  0  0  0  0  0  0  0  0
    0.5970    0.5606    1.2100 H   0  0  0  0  0  0  0  0  0  0  0  0
    1.3945   -0.9860    0.9458 H   0  0  0  0  0  0  0  0  0  0  0  0
   -2.2014   -1.9227    1.1058 H   0  0  0  0  0  0  0  0  0  0  0  0
   -1.4424   -0.6506    2.0889 H   0  0  0  0  0  0  0  0  0  0  0  0
   -0.6224   -2.1989    1.8158 H   0  0  0  0  0  0  0  0  0  0  0  0
   -0.0132   -1.7047   -1.6139 H   0  0  0  0  0  0  0  0  0  0  0  0
   -2.4636   -0.5135   -0.9284 H   0  0  0  0  0  0  0  0  0  0  0  0
   -1.1191    0.2933   -1.6713 H   0  0  0  0  0  0  0  0  0  0  0  0
   -2.4386    1.1337    0.9683 H   0  0  0  0  0  0  0  0  0  0  0  0
   -1.0563    1.9594    0.2193 H   0  0  0  0  0  0  0  0  0  0  0  0
   -2.6165    1.9135   -0.6050 H   0  0  0  0  0  0  0  0  0  0  0  0
  1  2  1  0
  2  3  1  0
  3  4  1  0
  4  5  1  0
  4  6  1  0
  4  7  1  0
  7  8  1  0
  1  9  1  0
  1 10  1  0
  1 11  1  0
  2 12  1  0
  2 13  1  0
  3 14  1  0
  3 15  1  0
  5 16  1  0
  5 17  1  0
  5 18  1  0
  6 19  1  0
  7 20  1  0
  7 21  1  0
  8 22  1  0
  8 23  1  0
  8 24  1  0
M  END
>  <Energy>  (9) 
10.041010066241846

>  <Real charge>  (9) 
0

>  <Mult>  (9) 
1

$$$$
mol_767 227
     RDKit          3D

 24 23  0  0  0  0  0  0  0  0999 V2000
   -3.1637    0.3553    0.4165 C   0  0  0  0  0  0  0  0  0  0  0  0
   -1.6705    0.1245    0.6007 C   0  0  0  0  0  0  0  0  0  0  0  0
   -0.9577    0.0086   -0.7486 C   0  0  0  0  0  0  0  0  0  0  0  0
    0.5660   -0.2505   -0.6805 C   0  0  0  0  0  0  0  0  0  0  0  0
    0.8798   -1.5862    0.0019 C   0  0  0  0  0  0  0  0  0  0  0  0
    1.0294   -0.3372   -2.0359 O   0  0  0  0  0  0  0  0  0  0  0  0
    1.3072    0.9259   -0.0107 C   0  0  0  0  0  0  0  0  0  0  0  0
    2.8290    0.8246   -0.0544 C   0  0  0  0  0  0  0  0  0  0  0  0
   -3.6571    0.4372    1.3901 H   0  0  0  0  0  0  0  0  0  0  0  0
   -3.6248   -0.4743   -0.1289 H   0  0  0  0  0  0  0  0  0  0  0  0
   -3.3524    1.2797   -0.1387 H   0  0  0  0  0  0  0  0  0  0  0  0
   -1.5278   -0.7885    1.1880 H   0  0  0  0  0  0  0  0  0  0  0  0
   -1.2593    0.9568    1.1808 H   0  0  0  0  0  0  0  0  0  0  0  0
   -1.4277   -0.7936   -1.3345 H   0  0  0  0  0  0  0  0  0  0  0  0
   -1.1352    0.9223   -1.3325 H   0  0  0  0  0  0  0  0  0  0  0  0
    1.9223   -1.8808   -0.1607 H   0  0  0  0  0  0  0  0  0  0  0  0
    0.2715   -2.3921   -0.4251 H   0  0  0  0  0  0  0  0  0  0  0  0
    0.6945   -1.5493    1.0796 H   0  0  0  0  0  0  0  0  0  0  0  0
    0.5858   -1.0929   -2.4576 H   0  0  0  0  0  0  0  0  0  0  0  0
    1.0291    1.8583   -0.5186 H   0  0  0  0  0  0  0  0  0  0  0  0
    1.0008    1.0248    1.0366 H   0  0  0  0  0  0  0  0  0  0  0  0
    3.1898   -0.0359    0.5164 H   0  0  0  0  0  0  0  0  0  0  0  0
    3.2739    1.7225    0.3872 H   0  0  0  0  0  0  0  0  0  0  0  0
    3.1974    0.7410   -1.0812 H   0  0  0  0  0  0  0  0  0  0  0  0
  1  2  1  0
  2  3  1  0
  3  4  1  0
  4  5  1  0
  4  6  1  0
  4  7  1  0
  7  8  1  0
  1  9  1  0
  1 10  1  0
  1 11  1  0
  2 12  1  0
  2 13  1  0
  3 14  1  0
  3 15  1  0
  5 16  1  0
  5 17  1  0
  5 18  1  0
  6 19  1  0
  7 20  1  0
  7 21  1  0
  8 22  1  0
  8 23  1  0
  8 24  1  0
M  END
>  <Energy>  (10) 
10.0662314701603

>  <Real charge>  (10) 
0

>  <Mult>  (10) 
1

$$$$
mol_767 384
     RDKit          3D

 24 23  0  0  0  0  0  0  0  0999 V2000
   -3.0506    0.6397   -0.0558 C   0  0  0  0  0  0  0  0  0  0  0  0
   -1.8224   -0.1322   -0.5166 C   0  0  0  0  0  0  0  0  0  0  0  0
   -0.6004    0.1946    0.3517 C   0  0  0  0  0  0  0  0  0  0  0  0
    0.7182   -0.4593   -0.1221 C   0  0  0  0  0  0  0  0  0  0  0  0
    0.5920   -1.9853   -0.2180 C   0  0  0  0  0  0  0  0  0  0  0  0
    1.0326    0.0068   -1.4373 O   0  0  0  0  0  0  0  0  0  0  0  0
    1.8982   -0.1239    0.8206 C   0  0  0  0  0  0  0  0  0  0  0  0
    2.2034    1.3608    0.9854 C   0  0  0  0  0  0  0  0  0  0  0  0
   -3.9131    0.3869   -0.6804 H   0  0  0  0  0  0  0  0  0  0  0  0
   -3.2995    0.3969    0.9822 H   0  0  0  0  0  0  0  0  0  0  0  0
   -2.8854    1.7195   -0.1267 H   0  0  0  0  0  0  0  0  0  0  0  0
   -1.6202    0.1139   -1.5649 H   0  0  0  0  0  0  0  0  0  0  0  0
   -2.0491   -1.2024   -0.4672 H   0  0  0  0  0  0  0  0  0  0  0  0
   -0.4843    1.2853    0.3448 H   0  0  0  0  0  0  0  0  0  0  0  0
   -0.8060   -0.1018    1.3880 H   0  0  0  0  0  0  0  0  0  0  0  0
    1.5505   -2.4375   -0.4997 H   0  0  0  0  0  0  0  0  0  0  0  0
    0.2722   -2.4234    0.7329 H   0  0  0  0  0  0  0  0  0  0  0  0
   -0.1140   -2.2831   -1.0005 H   0  0  0  0  0  0  0  0  0  0  0  0
    0.9763    0.9770   -1.4384 H   0  0  0  0  0  0  0  0  0  0  0  0
    1.7131   -0.5548    1.8124 H   0  0  0  0  0  0  0  0  0  0  0  0
    2.8096   -0.5962    0.4310 H   0  0  0  0  0  0  0  0  0  0  0  0
    1.3794    1.8902    1.4717 H   0  0  0  0  0  0  0  0  0  0  0  0
    2.4093    1.8398    0.0239 H   0  0  0  0  0  0  0  0  0  0  0  0
    3.0900    1.4886    1.6156 H   0  0  0  0  0  0  0  0  0  0  0  0
  1  2  1  0
  2  3  1  0
  3  4  1  0
  4  5  1  0
  4  6  1  0
  4  7  1  0
  7  8  1  0
  1  9  1  0
  1 10  1  0
  1 11  1  0
  2 12  1  0
  2 13  1  0
  3 14  1  0
  3 15  1  0
  5 16  1  0
  5 17  1  0
  5 18  1  0
  6 19  1  0
  7 20  1  0
  7 21  1  0
  8 22  1  0
  8 23  1  0
  8 24  1  0
M  END
>  <Energy>  (11) 
10.25593827724614

>  <Real charge>  (11) 
0

>  <Mult>  (11) 
1

$$$$
mol_767 277
     RDKit          3D

 24 23  0  0  0  0  0  0  0  0999 V2000
    3.2498   -0.4215    0.1780 C   0  0  0  0  0  0  0  0  0  0  0  0
    1.8112   -0.5414   -0.3053 C   0  0  0  0  0  0  0  0  0  0  0  0
    0.9128    0.5077    0.3608 C   0  0  0  0  0  0  0  0  0  0  0  0
   -0.5607    0.5175   -0.1150 C   0  0  0  0  0  0  0  0  0  0  0  0
   -1.2947    1.6591    0.6010 C   0  0  0  0  0  0  0  0  0  0  0  0
   -0.5928    0.8264   -1.5111 O   0  0  0  0  0  0  0  0  0  0  0  0
   -1.2541   -0.8419    0.1251 C   0  0  0  0  0  0  0  0  0  0  0  0
   -2.7251   -0.8852   -0.2768 C   0  0  0  0  0  0  0  0  0  0  0  0
    3.6645    0.5624   -0.0634 H   0  0  0  0  0  0  0  0  0  0  0  0
    3.8751   -1.1804   -0.3027 H   0  0  0  0  0  0  0  0  0  0  0  0
    3.3130   -0.5656    1.2613 H   0  0  0  0  0  0  0  0  0  0  0  0
    1.7953   -0.4233   -1.3939 H   0  0  0  0  0  0  0  0  0  0  0  0
    1.4537   -1.5507   -0.0772 H   0  0  0  0  0  0  0  0  0  0  0  0
    0.9425    0.3632    1.4486 H   0  0  0  0  0  0  0  0  0  0  0  0
    1.3518    1.4941    0.1579 H   0  0  0  0  0  0  0  0  0  0  0  0
   -2.2957    1.8175    0.1856 H   0  0  0  0  0  0  0  0  0  0  0  0
   -0.7649    2.6091    0.4625 H   0  0  0  0  0  0  0  0  0  0  0  0
   -1.3839    1.4691    1.6755 H   0  0  0  0  0  0  0  0  0  0  0  0
   -0.2715    0.0519   -2.0023 H   0  0  0  0  0  0  0  0  0  0  0  0
   -1.1670   -1.1243    1.1812 H   0  0  0  0  0  0  0  0  0  0  0  0
   -0.7505   -1.6193   -0.4613 H   0  0  0  0  0  0  0  0  0  0  0  0
   -3.1101   -1.9048   -0.1698 H   0  0  0  0  0  0  0  0  0  0  0  0
   -3.3345   -0.2379    0.3604 H   0  0  0  0  0  0  0  0  0  0  0  0
   -2.8643   -0.5819   -1.3189 H   0  0  0  0  0  0  0  0  0  0  0  0
  1  2  1  0
  2  3  1  0
  3  4  1  0
  4  5  1  0
  4  6  1  0
  4  7  1  0
  7  8  1  0
  1  9  1  0
  1 10  1  0
  1 11  1  0
  2 12  1  0
  2 13  1  0
  3 14  1  0
  3 15  1  0
  5 16  1  0
  5 17  1  0
  5 18  1  0
  6 19  1  0
  7 20  1  0
  7 21  1  0
  8 22  1  0
  8 23  1  0
  8 24  1  0
M  END
>  <Energy>  (12) 
10.279599869730454

>  <Real charge>  (12) 
0

>  <Mult>  (12) 
1

$$$$
mol_767 294
     RDKit          3D

 24 23  0  0  0  0  0  0  0  0999 V2000
    2.9202   -1.0353   -0.4669 C   0  0  0  0  0  0  0  0  0  0  0  0
    1.9031    0.0500   -0.1425 C   0  0  0  0  0  0  0  0  0  0  0  0
    0.4722   -0.4274   -0.4235 C   0  0  0  0  0  0  0  0  0  0  0  0
   -0.6425    0.5776   -0.0512 C   0  0  0  0  0  0  0  0  0  0  0  0
   -0.4231    1.9531   -0.6955 C   0  0  0  0  0  0  0  0  0  0  0  0
   -0.6631    0.7525    1.3685 O   0  0  0  0  0  0  0  0  0  0  0  0
   -2.0350    0.0529   -0.4735 C   0  0  0  0  0  0  0  0  0  0  0  0
   -2.4369   -1.2789    0.1514 C   0  0  0  0  0  0  0  0  0  0  0  0
    3.9345   -0.6753   -0.2676 H   0  0  0  0  0  0  0  0  0  0  0  0
    2.8631   -1.3239   -1.5213 H   0  0  0  0  0  0  0  0  0  0  0  0
    2.7508   -1.9277    0.1442 H   0  0  0  0  0  0  0  0  0  0  0  0
    2.1360    0.9325   -0.7474 H   0  0  0  0  0  0  0  0  0  0  0  0
    2.0128    0.3320    0.9099 H   0  0  0  0  0  0  0  0  0  0  0  0
    0.3889   -0.6853   -1.4870 H   0  0  0  0  0  0  0  0  0  0  0  0
    0.3244   -1.3523    0.1479 H   0  0  0  0  0  0  0  0  0  0  0  0
   -1.2521    2.6297   -0.4564 H   0  0  0  0  0  0  0  0  0  0  0  0
   -0.3430    1.8779   -1.7847 H   0  0  0  0  0  0  0  0  0  0  0  0
    0.4768    2.4426   -0.3085 H   0  0  0  0  0  0  0  0  0  0  0  0
    0.1474    1.2192    1.6320 H   0  0  0  0  0  0  0  0  0  0  0  0
   -2.7963    0.7872   -0.1788 H   0  0  0  0  0  0  0  0  0  0  0  0
   -2.0848   -0.0393   -1.5654 H   0  0  0  0  0  0  0  0  0  0  0  0
   -2.3826   -1.2429    1.2436 H   0  0  0  0  0  0  0  0  0  0  0  0
   -3.4682   -1.5226   -0.1245 H   0  0  0  0  0  0  0  0  0  0  0  0
   -1.8025   -2.0964   -0.2030 H   0  0  0  0  0  0  0  0  0  0  0  0
  1  2  1  0
  2  3  1  0
  3  4  1  0
  4  5  1  0
  4  6  1  0
  4  7  1  0
  7  8  1  0
  1  9  1  0
  1 10  1  0
  1 11  1  0
  2 12  1  0
  2 13  1  0
  3 14  1  0
  3 15  1  0
  5 16  1  0
  5 17  1  0
  5 18  1  0
  6 19  1  0
  7 20  1  0
  7 21  1  0
  8 22  1  0
  8 23  1  0
  8 24  1  0
M  END
>  <Energy>  (13) 
10.358889889294538

>  <Real charge>  (13) 
0

>  <Mult>  (13) 
1

$$$$
mol_767 270
     RDKit          3D

 24 23  0  0  0  0  0  0  0  0999 V2000
   -3.3353    0.6437   -0.0050 C   0  0  0  0  0  0  0  0  0  0  0  0
   -2.0948   -0.2293   -0.1303 C   0  0  0  0  0  0  0  0  0  0  0  0
   -0.8132    0.6035   -0.0014 C   0  0  0  0  0  0  0  0  0  0  0  0
    0.5012   -0.1834   -0.2259 C   0  0  0  0  0  0  0  0  0  0  0  0
    0.6522   -1.3261    0.7845 C   0  0  0  0  0  0  0  0  0  0  0  0
    0.4508   -0.7407   -1.5418 O   0  0  0  0  0  0  0  0  0  0  0  0
    1.6837    0.8119   -0.1507 C   0  0  0  0  0  0  0  0  0  0  0  0
    3.0620    0.2157   -0.4148 C   0  0  0  0  0  0  0  0  0  0  0  0
   -4.2390    0.0322   -0.0912 H   0  0  0  0  0  0  0  0  0  0  0  0
   -3.3628    1.4027   -0.7934 H   0  0  0  0  0  0  0  0  0  0  0  0
   -3.3604    1.1526    0.9639 H   0  0  0  0  0  0  0  0  0  0  0  0
   -2.1197   -0.7439   -1.0971 H   0  0  0  0  0  0  0  0  0  0  0  0
   -2.1316   -0.9953    0.6511 H   0  0  0  0  0  0  0  0  0  0  0  0
   -0.8677    1.4110   -0.7442 H   0  0  0  0  0  0  0  0  0  0  0  0
   -0.7929    1.0802    0.9871 H   0  0  0  0  0  0  0  0  0  0  0  0
   -0.1566   -2.0573    0.6845 H   0  0  0  0  0  0  0  0  0  0  0  0
    1.5715   -1.8954    0.6122 H   0  0  0  0  0  0  0  0  0  0  0  0
    0.6628   -0.9526    1.8133 H   0  0  0  0  0  0  0  0  0  0  0  0
    1.1952   -1.3574   -1.6418 H   0  0  0  0  0  0  0  0  0  0  0  0
    1.6963    1.2978    0.8329 H   0  0  0  0  0  0  0  0  0  0  0  0
    1.5296    1.6026   -0.8967 H   0  0  0  0  0  0  0  0  0  0  0  0
    3.8175    1.0085   -0.3964 H   0  0  0  0  0  0  0  0  0  0  0  0
    3.3387   -0.5155    0.3497 H   0  0  0  0  0  0  0  0  0  0  0  0
    3.1124   -0.2657   -1.3956 H   0  0  0  0  0  0  0  0  0  0  0  0
  1  2  1  0
  2  3  1  0
  3  4  1  0
  4  5  1  0
  4  6  1  0
  4  7  1  0
  7  8  1  0
  1  9  1  0
  1 10  1  0
  1 11  1  0
  2 12  1  0
  2 13  1  0
  3 14  1  0
  3 15  1  0
  5 16  1  0
  5 17  1  0
  5 18  1  0
  6 19  1  0
  7 20  1  0
  7 21  1  0
  8 22  1  0
  8 23  1  0
  8 24  1  0
M  END
>  <Energy>  (14) 
10.42887055526904

>  <Real charge>  (14) 
0

>  <Mult>  (14) 
1

$$$$
mol_767 241
     RDKit          3D

 24 23  0  0  0  0  0  0  0  0999 V2000
    3.2542    0.3129   -0.1701 C   0  0  0  0  0  0  0  0  0  0  0  0
    1.7829    0.1018   -0.4988 C   0  0  0  0  0  0  0  0  0  0  0  0
    0.9468   -0.0443    0.7747 C   0  0  0  0  0  0  0  0  0  0  0  0
   -0.5672   -0.2820    0.5632 C   0  0  0  0  0  0  0  0  0  0  0  0
   -0.8219   -1.5922   -0.1907 C   0  0  0  0  0  0  0  0  0  0  0  0
   -1.1184   -0.4171    1.8812 O   0  0  0  0  0  0  0  0  0  0  0  0
   -1.2306    0.9287   -0.1294 C   0  0  0  0  0  0  0  0  0  0  0  0
   -2.7501    0.8570   -0.2437 C   0  0  0  0  0  0  0  0  0  0  0  0
    3.3969    1.2201    0.4257 H   0  0  0  0  0  0  0  0  0  0  0  0
    3.6563   -0.5356    0.3927 H   0  0  0  0  0  0  0  0  0  0  0  0
    3.8369    0.4162   -1.0909 H   0  0  0  0  0  0  0  0  0  0  0  0
    1.6899   -0.7934   -1.1224 H   0  0  0  0  0  0  0  0  0  0  0  0
    1.4338    0.9536   -1.0911 H   0  0  0  0  0  0  0  0  0  0  0  0
    1.3519   -0.8690    1.3778 H   0  0  0  0  0  0  0  0  0  0  0  0
    1.0805    0.8500    1.3992 H   0  0  0  0  0  0  0  0  0  0  0  0
   -0.5215   -1.5256   -1.2407 H   0  0  0  0  0  0  0  0  0  0  0  0
   -1.8791   -1.8769   -0.1546 H   0  0  0  0  0  0  0  0  0  0  0  0
   -0.2738   -2.4191    0.2755 H   0  0  0  0  0  0  0  0  0  0  0  0
   -2.0331   -0.7355    1.8010 H   0  0  0  0  0  0  0  0  0  0  0  0
   -0.8218    1.0582   -1.1377 H   0  0  0  0  0  0  0  0  0  0  0  0
   -0.9906    1.8385    0.4357 H   0  0  0  0  0  0  0  0  0  0  0  0
   -3.2259    0.7906    0.7389 H   0  0  0  0  0  0  0  0  0  0  0  0
   -3.1277    1.7617   -0.7320 H   0  0  0  0  0  0  0  0  0  0  0  0
   -3.0685    0.0013   -0.8457 H   0  0  0  0  0  0  0  0  0  0  0  0
  1  2  1  0
  2  3  1  0
  3  4  1  0
  4  5  1  0
  4  6  1  0
  4  7  1  0
  7  8  1  0
  1  9  1  0
  1 10  1  0
  1 11  1  0
  2 12  1  0
  2 13  1  0
  3 14  1  0
  3 15  1  0
  5 16  1  0
  5 17  1  0
  5 18  1  0
  6 19  1  0
  7 20  1  0
  7 21  1  0
  8 22  1  0
  8 23  1  0
  8 24  1  0
M  END
>  <Energy>  (15) 
10.490113915828008

>  <Real charge>  (15) 
0

>  <Mult>  (15) 
1

$$$$
mol_767 128
     RDKit          3D

 24 23  0  0  0  0  0  0  0  0999 V2000
    2.8670    0.4278    1.2214 C   0  0  0  0  0  0  0  0  0  0  0  0
    1.8972   -0.3213    0.3182 C   0  0  0  0  0  0  0  0  0  0  0  0
    0.5707    0.4366    0.1779 C   0  0  0  0  0  0  0  0  0  0  0  0
   -0.4775   -0.2408   -0.7346 C   0  0  0  0  0  0  0  0  0  0  0  0
   -0.8950   -1.6209   -0.2142 C   0  0  0  0  0  0  0  0  0  0  0  0
    0.0899   -0.4132   -2.0409 O   0  0  0  0  0  0  0  0  0  0  0  0
   -1.7085    0.6716   -0.9393 C   0  0  0  0  0  0  0  0  0  0  0  0
   -2.5171    0.9874    0.3107 C   0  0  0  0  0  0  0  0  0  0  0  0
    3.8065   -0.1266    1.3106 H   0  0  0  0  0  0  0  0  0  0  0  0
    2.4502    0.5537    2.2258 H   0  0  0  0  0  0  0  0  0  0  0  0
    3.0948    1.4189    0.8163 H   0  0  0  0  0  0  0  0  0  0  0  0
    2.3663   -0.4559   -0.6623 H   0  0  0  0  0  0  0  0  0  0  0  0
    1.7254   -1.3165    0.7411 H   0  0  0  0  0  0  0  0  0  0  0  0
    0.7977    1.4316   -0.2278 H   0  0  0  0  0  0  0  0  0  0  0  0
    0.1497    0.5868    1.1791 H   0  0  0  0  0  0  0  0  0  0  0  0
   -1.6979   -2.0399   -0.8318 H   0  0  0  0  0  0  0  0  0  0  0  0
   -1.2415   -1.5796    0.8229 H   0  0  0  0  0  0  0  0  0  0  0  0
   -0.0698   -2.3388   -0.2717 H   0  0  0  0  0  0  0  0  0  0  0  0
    0.7565   -1.1188   -1.9963 H   0  0  0  0  0  0  0  0  0  0  0  0
   -2.3751    0.2122   -1.6817 H   0  0  0  0  0  0  0  0  0  0  0  0
   -1.3846    1.6151   -1.3988 H   0  0  0  0  0  0  0  0  0  0  0  0
   -1.9217    1.5282    1.0513 H   0  0  0  0  0  0  0  0  0  0  0  0
   -2.9131    0.0800    0.7751 H   0  0  0  0  0  0  0  0  0  0  0  0
   -3.3701    1.6224    0.0491 H   0  0  0  0  0  0  0  0  0  0  0  0
  1  2  1  0
  2  3  1  0
  3  4  1  0
  4  5  1  0
  4  6  1  0
  4  7  1  0
  7  8  1  0
  1  9  1  0
  1 10  1  0
  1 11  1  0
  2 12  1  0
  2 13  1  0
  3 14  1  0
  3 15  1  0
  5 16  1  0
  5 17  1  0
  5 18  1  0
  6 19  1  0
  7 20  1  0
  7 21  1  0
  8 22  1  0
  8 23  1  0
  8 24  1  0
M  END
>  <Energy>  (16) 
10.518733278668972

>  <Real charge>  (16) 
0

>  <Mult>  (16) 
1

$$$$
