mol_295 79
     RDKit          3D

 42 43  0  0  0  0  0  0  0  0999 V2000
   -3.7253    3.4816    1.0893 C   0  0  0  0  0  0  0  0  0  0  0  0
   -2.5995    2.7894    0.3466 C   0  0  0  0  0  0  0  0  0  0  0  0
   -2.9569    1.4130    0.1752 O   0  0  0  0  0  0  0  0  0  0  0  0
   -2.0147    0.6719   -0.4547 C   0  0  0  0  0  0  0  0  0  0  0  0
   -0.9497    1.0668   -0.9016 O   0  0  0  0  0  0  0  0  0  0  0  0
   -2.4698   -0.7359   -0.5149 C   0  0  0  0  0  0  0  0  0  0  0  0
   -3.7755   -1.0033   -0.9565 C   0  0  0  0  0  0  0  0  0  0  0  0
   -4.2195   -2.3211   -1.0851 C   0  0  0  0  0  0  0  0  0  0  0  0
   -3.3651   -3.3797   -0.7799 C   0  0  0  0  0  0  0  0  0  0  0  0
   -2.0664   -3.1261   -0.3372 C   0  0  0  0  0  0  0  0  0  0  0  0
   -1.6190   -1.8046   -0.2059 C   0  0  0  0  0  0  0  0  0  0  0  0
    0.0014   -1.5096    0.4437 S   0  0  0  0  0  6  0  0  0  0  0  0
   -0.0979   -0.4286    1.4010 O   0  0  0  0  0  0  0  0  0  0  0  0
    0.5753   -2.7801    0.8388 O   0  0  0  0  0  0  0  0  0  0  0  0
    0.8107   -0.9518   -0.9426 N   0  0  0  0  0  0  0  0  0  0  0  0
    2.2469   -1.4414   -1.0555 N   0  0  0  0  0  0  0  0  0  0  0  0
    2.4639   -2.6349   -1.7117 C   0  0  0  0  0  0  0  0  0  0  0  0
    1.6102   -3.3083   -2.2851 O   0  0  0  0  0  0  0  0  0  0  0  0
    3.2643   -0.7138   -0.4017 C   0  0  0  0  0  0  0  0  0  0  0  0
    4.5267   -1.1528   -0.4430 N   0  0  0  0  0  0  0  0  0  0  0  0
    5.4314   -0.3975    0.2007 C   0  0  0  0  0  0  0  0  0  0  0  0
    7.0353   -1.0021    0.1178 Cl  0  0  0  0  0  0  0  0  0  0  0  0
    5.1574    0.7598    0.8741 C   0  0  0  0  0  0  0  0  0  0  0  0
    3.8396    1.1189    0.8533 C   0  0  0  0  0  0  0  0  0  0  0  0
    3.5096    2.2848    1.5133 O   0  0  0  0  0  0  0  0  0  0  0  0
    2.1022    2.4985    1.6085 C   0  0  0  0  0  0  0  0  0  0  0  0
    2.8872    0.4186    0.2187 N   0  0  0  0  0  0  0  0  0  0  0  0
   -4.6636    3.3992    0.5308 H   0  0  0  0  0  0  0  0  0  0  0  0
   -3.8920    3.0095    2.0632 H   0  0  0  0  0  0  0  0  0  0  0  0
   -3.4979    4.5400    1.2440 H   0  0  0  0  0  0  0  0  0  0  0  0
   -2.4585    3.2583   -0.6336 H   0  0  0  0  0  0  0  0  0  0  0  0
   -1.6728    2.8619    0.9271 H   0  0  0  0  0  0  0  0  0  0  0  0
   -4.4496   -0.1884   -1.2137 H   0  0  0  0  0  0  0  0  0  0  0  0
   -5.2309   -2.5231   -1.4312 H   0  0  0  0  0  0  0  0  0  0  0  0
   -3.7101   -4.4062   -0.8862 H   0  0  0  0  0  0  0  0  0  0  0  0
   -1.4112   -3.9631   -0.1000 H   0  0  0  0  0  0  0  0  0  0  0  0
    0.7449    0.0789   -0.9496 H   0  0  0  0  0  0  0  0  0  0  0  0
    3.5163   -2.9605   -1.6972 H   0  0  0  0  0  0  0  0  0  0  0  0
    5.9100    1.3428    1.3828 H   0  0  0  0  0  0  0  0  0  0  0  0
    1.9440    3.4262    2.1668 H   0  0  0  0  0  0  0  0  0  0  0  0
    1.6503    2.6245    0.6185 H   0  0  0  0  0  0  0  0  0  0  0  0
    1.6182    1.6886    2.1641 H   0  0  0  0  0  0  0  0  0  0  0  0
  1  2  1  0
  2  3  1  0
  3  4  1  0
  4  5  2  0
  4  6  1  0
  6  7  2  0
  7  8  1  0
  8  9  2  0
  9 10  1  0
 10 11  2  0
 11 12  1  0
 12 13  2  0
 12 14  2  0
 12 15  1  0
 15 16  1  0
 16 17  1  0
 17 18  2  0
 16 19  1  0
 19 20  2  0
 20 21  1  0
 21 22  1  0
 21 23  2  0
 23 24  1  0
 24 25  1  0
 25 26  1  0
 24 27  2  0
 11  6  1  0
 27 19  1  0
  1 28  1  0
  1 29  1  0
  1 30  1  0
  2 31  1  0
  2 32  1  0
  7 33  1  0
  8 34  1  0
  9 35  1  0
 10 36  1  0
 15 37  1  0
 17 38  1  0
 23 39  1  0
 26 40  1  0
 26 41  1  0
 26 42  1  0
M  END
>  <Energy>  (1) 
-104.4118361060754

>  <Real charge>  (1) 
0

>  <Mult>  (1) 
1

$$$$
mol_295 105
     RDKit          3D

 42 43  0  0  0  0  0  0  0  0999 V2000
    2.9358    3.5516    1.2477 C   0  0  0  0  0  0  0  0  0  0  0  0
    2.4236    3.0571   -0.0919 C   0  0  0  0  0  0  0  0  0  0  0  0
    2.8560    1.7078   -0.3182 O   0  0  0  0  0  0  0  0  0  0  0  0
    2.0491    0.7424    0.1824 C   0  0  0  0  0  0  0  0  0  0  0  0
    1.0272    0.8996    0.8309 O   0  0  0  0  0  0  0  0  0  0  0  0
    2.5978   -0.5818   -0.1889 C   0  0  0  0  0  0  0  0  0  0  0  0
    3.9632   -0.8293    0.0256 C   0  0  0  0  0  0  0  0  0  0  0  0
    4.5037   -2.0861   -0.2545 C   0  0  0  0  0  0  0  0  0  0  0  0
    3.6875   -3.1048   -0.7445 C   0  0  0  0  0  0  0  0  0  0  0  0
    2.3297   -2.8698   -0.9640 C   0  0  0  0  0  0  0  0  0  0  0  0
    1.7853   -1.6090   -0.6850 C   0  0  0  0  0  0  0  0  0  0  0  0
    0.0799   -1.3114   -1.0558 S   0  0  0  0  0  6  0  0  0  0  0  0
   -0.4565   -2.4829   -1.7186 O   0  0  0  0  0  0  0  0  0  0  0  0
   -0.0135   -0.0129   -1.6882 O   0  0  0  0  0  0  0  0  0  0  0  0
   -0.5805   -1.2173    0.5075 N   0  0  0  0  0  0  0  0  0  0  0  0
   -1.9599   -1.8476    0.6314 N   0  0  0  0  0  0  0  0  0  0  0  0
   -2.0226   -3.1875    0.9519 C   0  0  0  0  0  0  0  0  0  0  0  0
   -1.0658   -3.9095    1.2244 O   0  0  0  0  0  0  0  0  0  0  0  0
   -3.0923   -1.0661    0.3166 C   0  0  0  0  0  0  0  0  0  0  0  0
   -4.3118   -1.6124    0.3668 N   0  0  0  0  0  0  0  0  0  0  0  0
   -5.3327   -0.7967    0.0577 C   0  0  0  0  0  0  0  0  0  0  0  0
   -6.8755   -1.5439    0.1370 Cl  0  0  0  0  0  0  0  0  0  0  0  0
   -5.2134    0.5192   -0.2917 C   0  0  0  0  0  0  0  0  0  0  0  0
   -3.9267    0.9773   -0.3102 C   0  0  0  0  0  0  0  0  0  0  0  0
   -3.7507    2.3030   -0.6498 O   0  0  0  0  0  0  0  0  0  0  0  0
   -2.3809    2.6626   -0.8231 C   0  0  0  0  0  0  0  0  0  0  0  0
   -2.8628    0.2209    0.0000 N   0  0  0  0  0  0  0  0  0  0  0  0
    4.0256    3.4598    1.3001 H   0  0  0  0  0  0  0  0  0  0  0  0
    2.5263    2.9552    2.0692 H   0  0  0  0  0  0  0  0  0  0  0  0
    2.6614    4.5984    1.4054 H   0  0  0  0  0  0  0  0  0  0  0  0
    1.3327    3.1418   -0.1601 H   0  0  0  0  0  0  0  0  0  0  0  0
    2.8454    3.6680   -0.8966 H   0  0  0  0  0  0  0  0  0  0  0  0
    4.6103   -0.0496    0.4227 H   0  0  0  0  0  0  0  0  0  0  0  0
    5.5615   -2.2741   -0.0833 H   0  0  0  0  0  0  0  0  0  0  0  0
    4.1084   -4.0856   -0.9568 H   0  0  0  0  0  0  0  0  0  0  0  0
    1.7050   -3.6745   -1.3491 H   0  0  0  0  0  0  0  0  0  0  0  0
   -0.5764   -0.2234    0.7887 H   0  0  0  0  0  0  0  0  0  0  0  0
   -3.0477   -3.5911    0.9590 H   0  0  0  0  0  0  0  0  0  0  0  0
   -6.0568    1.1472   -0.5357 H   0  0  0  0  0  0  0  0  0  0  0  0
   -2.3484    3.7171   -1.1134 H   0  0  0  0  0  0  0  0  0  0  0  0
   -1.9204    2.0808   -1.6283 H   0  0  0  0  0  0  0  0  0  0  0  0
   -1.8200    2.5573    0.1120 H   0  0  0  0  0  0  0  0  0  0  0  0
  1  2  1  0
  2  3  1  0
  3  4  1  0
  4  5  2  0
  4  6  1  0
  6  7  2  0
  7  8  1  0
  8  9  2  0
  9 10  1  0
 10 11  2  0
 11 12  1  0
 12 13  2  0
 12 14  2  0
 12 15  1  0
 15 16  1  0
 16 17  1  0
 17 18  2  0
 16 19  1  0
 19 20  2  0
 20 21  1  0
 21 22  1  0
 21 23  2  0
 23 24  1  0
 24 25  1  0
 25 26  1  0
 24 27  2  0
 11  6  1  0
 27 19  1  0
  1 28  1  0
  1 29  1  0
  1 30  1  0
  2 31  1  0
  2 32  1  0
  7 33  1  0
  8 34  1  0
  9 35  1  0
 10 36  1  0
 15 37  1  0
 17 38  1  0
 23 39  1  0
 26 40  1  0
 26 41  1  0
 26 42  1  0
M  END
>  <Energy>  (2) 
-104.06888453261517

>  <Real charge>  (2) 
0

>  <Mult>  (2) 
1

$$$$
