mol_677 14
     RDKit          3D

 34 39  0  0  0  0  0  0  0  0999 V2000
    2.8436    2.7538   -0.0998 C   0  0  0  0  0  0  0  0  0  0  0  0
    3.5256    1.5507   -0.2014 C   0  0  0  0  0  0  0  0  0  0  0  0
    2.8243    0.3424   -0.1988 C   0  0  0  0  0  0  0  0  0  0  0  0
    3.5188   -0.8679   -0.3016 C   0  0  0  0  0  0  0  0  0  0  0  0
    2.8354   -2.0813   -0.3006 C   0  0  0  0  0  0  0  0  0  0  0  0
    1.4420   -2.1098   -0.1967 C   0  0  0  0  0  0  0  0  0  0  0  0
    0.7553   -3.3286   -0.1956 C   0  0  0  0  0  0  0  0  0  0  0  0
   -0.6337   -3.3583   -0.0921 C   0  0  0  0  0  0  0  0  0  0  0  0
   -1.3642   -2.1698    0.0125 C   0  0  0  0  0  0  0  0  0  0  0  0
   -2.7575   -2.2010    0.1164 C   0  0  0  0  0  0  0  0  0  0  0  0
   -3.4845   -1.0178    0.2205 C   0  0  0  0  0  0  0  0  0  0  0  0
   -2.8346    0.2213    0.2231 C   0  0  0  0  0  0  0  0  0  0  0  0
   -3.5793    1.3986    0.3283 C   0  0  0  0  0  0  0  0  0  0  0  0
   -2.9415    2.6300    0.3315 C   0  0  0  0  0  0  0  0  0  0  0  0
   -1.5514    2.6929    0.2292 C   0  0  0  0  0  0  0  0  0  0  0  0
   -0.7446    1.5326    0.1200 C   0  0  0  0  0  0  0  0  0  0  0  0
    0.6883    1.5633    0.0132 C   0  0  0  0  0  0  0  0  0  0  0  0
    1.4523    2.7572    0.0053 C   0  0  0  0  0  0  0  0  0  0  0  0
    1.4067    0.3432   -0.0918 C   0  0  0  0  0  0  0  0  0  0  0  0
    0.7204   -0.8945   -0.0916 C   0  0  0  0  0  0  0  0  0  0  0  0
   -0.6873   -0.9247    0.0133 C   0  0  0  0  0  0  0  0  0  0  0  0
   -1.4181    0.2827    0.1188 C   0  0  0  0  0  0  0  0  0  0  0  0
    3.3908    3.6928   -0.1020 H   0  0  0  0  0  0  0  0  0  0  0  0
    4.6100    1.5647   -0.2826 H   0  0  0  0  0  0  0  0  0  0  0  0
    4.6035   -0.8786   -0.3839 H   0  0  0  0  0  0  0  0  0  0  0  0
    3.4044   -3.0047   -0.3820 H   0  0  0  0  0  0  0  0  0  0  0  0
    1.2959   -4.2690   -0.2756 H   0  0  0  0  0  0  0  0  0  0  0  0
   -1.1397   -4.3211   -0.0940 H   0  0  0  0  0  0  0  0  0  0  0  0
   -3.2925   -3.1480    0.1173 H   0  0  0  0  0  0  0  0  0  0  0  0
   -4.5680   -1.0749    0.2999 H   0  0  0  0  0  0  0  0  0  0  0  0
   -4.6633    1.3662    0.4088 H   0  0  0  0  0  0  0  0  0  0  0  0
   -3.5224    3.5448    0.4134 H   0  0  0  0  0  0  0  0  0  0  0  0
   -1.1079    3.6842    0.2371 H   0  0  0  0  0  0  0  0  0  0  0  0
    0.9730    3.7288    0.0819 H   0  0  0  0  0  0  0  0  0  0  0  0
  1  2  2  0
  2  3  1  0
  3  4  2  0
  4  5  1  0
  5  6  2  0
  6  7  1  0
  7  8  2  0
  8  9  1  0
  9 10  2  0
 10 11  1  0
 11 12  2  0
 12 13  1  0
 13 14  2  0
 14 15  1  0
 15 16  2  0
 16 17  1  0
 17 18  2  0
 17 19  1  0
 19 20  2  0
 20 21  1  0
 21 22  2  0
 18  1  1  0
 19  3  1  0
 20  6  1  0
 21  9  1  0
 22 12  1  0
 22 16  1  0
  1 23  1  0
  2 24  1  0
  4 25  1  0
  5 26  1  0
  7 27  1  0
  8 28  1  0
 10 29  1  0
 11 30  1  0
 13 31  1  0
 14 32  1  0
 15 33  1  0
 18 34  1  0
M  END
>  <Energy>  (1) 
92.58128371098967

>  <Real charge>  (1) 
0

>  <Mult>  (1) 
1

$$$$
