mol_1118 33
     RDKit          3D

 33 35  0  0  0  0  0  0  0  0999 V2000
    5.1702   -1.0866   -0.2164 N   0  0  0  0  0  0  0  0  0  0  0  0
    3.9715   -0.9678    0.9520 S   0  0  0  0  0  6  0  0  0  0  0  0
    3.5317   -2.3293    1.1619 O   0  0  0  0  0  0  0  0  0  0  0  0
    4.5001   -0.1712    2.0325 O   0  0  0  0  0  0  0  0  0  0  0  0
    2.6909   -0.0718    0.1323 C   0  0  0  0  0  0  0  0  0  0  0  0
    1.4453   -0.7014   -0.0450 C   0  0  0  0  0  0  0  0  0  0  0  0
    0.3739   -0.0395   -0.6740 C   0  0  0  0  0  0  0  0  0  0  0  0
    0.5845    1.2820   -1.1041 C   0  0  0  0  0  0  0  0  0  0  0  0
    1.8229    1.9079   -0.9280 C   0  0  0  0  0  0  0  0  0  0  0  0
    2.8827    1.2365   -0.3102 C   0  0  0  0  0  0  0  0  0  0  0  0
    4.3662    2.1065   -0.1592 Cl  0  0  0  0  0  0  0  0  0  0  0  0
   -0.9775   -0.7183   -0.8384 C   0  0  0  0  0  0  0  0  0  0  0  0
   -0.8682   -2.1196   -0.7574 O   0  0  0  0  0  0  0  0  0  0  0  0
   -1.5738   -0.4662   -2.1165 N   0  0  0  0  0  0  0  0  0  0  0  0
   -2.7705    0.2083   -2.0224 C   0  0  0  0  0  0  0  0  0  0  0  0
   -3.4334    0.6434   -2.9408 O   0  0  0  0  0  0  0  0  0  0  0  0
   -3.0873    0.3215   -0.5954 C   0  0  0  0  0  0  0  0  0  0  0  0
   -4.2019    0.8653    0.0125 C   0  0  0  0  0  0  0  0  0  0  0  0
   -4.2464    0.8334    1.4071 C   0  0  0  0  0  0  0  0  0  0  0  0
   -3.1911    0.2656    2.1463 C   0  0  0  0  0  0  0  0  0  0  0  0
   -2.0710   -0.2761    1.5050 C   0  0  0  0  0  0  0  0  0  0  0  0
   -2.0268   -0.2361    0.1206 C   0  0  0  0  0  0  0  0  0  0  0  0
    5.9969   -0.5656    0.0804 H   0  0  0  0  0  0  0  0  0  0  0  0
    5.3525   -2.0682   -0.4275 H   0  0  0  0  0  0  0  0  0  0  0  0
    1.3017   -1.7217    0.3137 H   0  0  0  0  0  0  0  0  0  0  0  0
   -0.2180    1.8450   -1.5800 H   0  0  0  0  0  0  0  0  0  0  0  0
    1.9513    2.9315   -1.2762 H   0  0  0  0  0  0  0  0  0  0  0  0
   -1.5732   -2.4425   -1.3419 H   0  0  0  0  0  0  0  0  0  0  0  0
   -1.0783   -0.5388   -2.9930 H   0  0  0  0  0  0  0  0  0  0  0  0
   -5.0075    1.2945   -0.5739 H   0  0  0  0  0  0  0  0  0  0  0  0
   -5.1059    1.2480    1.9300 H   0  0  0  0  0  0  0  0  0  0  0  0
   -3.2492    0.2475    3.2333 H   0  0  0  0  0  0  0  0  0  0  0  0
   -1.2620   -0.7164    2.0806 H   0  0  0  0  0  0  0  0  0  0  0  0
  1  2  1  0
  2  3  2  0
  2  4  2  0
  2  5  1  0
  5  6  2  0
  6  7  1  0
  7  8  2  0
  8  9  1  0
  9 10  2  0
 10 11  1  0
  7 12  1  0
 12 13  1  0
 12 14  1  0
 14 15  1  0
 15 16  2  0
 15 17  1  0
 17 18  2  0
 18 19  1  0
 19 20  2  0
 20 21  1  0
 21 22  2  0
 10  5  1  0
 22 12  1  0
 22 17  1  0
  1 23  1  0
  1 24  1  0
  6 25  1  0
  8 26  1  0
  9 27  1  0
 13 28  1  0
 14 29  1  0
 18 30  1  0
 19 31  1  0
 20 32  1  0
 21 33  1  0
M  END
>  <Energy>  (1) 
-105.49725656207764

>  <Real charge>  (1) 
0

>  <Mult>  (1) 
1

$$$$
mol_1118 366
     RDKit          3D

 33 35  0  0  0  0  0  0  0  0999 V2000
    4.7206    1.2508   -0.6511 N   0  0  0  0  0  0  0  0  0  0  0  0
    4.2022    0.3791    0.6866 S   0  0  0  0  0  6  0  0  0  0  0  0
    3.8469    1.3898    1.6580 O   0  0  0  0  0  0  0  0  0  0  0  0
    5.2057   -0.6192    0.9647 O   0  0  0  0  0  0  0  0  0  0  0  0
    2.7301   -0.4089    0.1154 C   0  0  0  0  0  0  0  0  0  0  0  0
    1.5196   -0.1128    0.7682 C   0  0  0  0  0  0  0  0  0  0  0  0
    0.3100   -0.7162    0.3754 C   0  0  0  0  0  0  0  0  0  0  0  0
    0.3494   -1.6166   -0.7033 C   0  0  0  0  0  0  0  0  0  0  0  0
    1.5536   -1.9145   -1.3493 C   0  0  0  0  0  0  0  0  0  0  0  0
    2.7506   -1.3163   -0.9430 C   0  0  0  0  0  0  0  0  0  0  0  0
    4.1714   -1.7563   -1.8195 Cl  0  0  0  0  0  0  0  0  0  0  0  0
   -0.9991   -0.3744    1.0710 C   0  0  0  0  0  0  0  0  0  0  0  0
   -0.7816    0.1920    2.3412 O   0  0  0  0  0  0  0  0  0  0  0  0
   -1.8165   -1.5260    1.3119 N   0  0  0  0  0  0  0  0  0  0  0  0
   -3.0237   -1.4686    0.6515 C   0  0  0  0  0  0  0  0  0  0  0  0
   -3.8576   -2.3474    0.5841 O   0  0  0  0  0  0  0  0  0  0  0  0
   -3.1051   -0.1476    0.0208 C   0  0  0  0  0  0  0  0  0  0  0  0
   -4.1373    0.4125   -0.7061 C   0  0  0  0  0  0  0  0  0  0  0  0
   -3.9459    1.7070   -1.1912 C   0  0  0  0  0  0  0  0  0  0  0  0
   -2.7453    2.3981   -0.9392 C   0  0  0  0  0  0  0  0  0  0  0  0
   -1.7133    1.8055   -0.2023 C   0  0  0  0  0  0  0  0  0  0  0  0
   -1.9038    0.5172    0.2713 C   0  0  0  0  0  0  0  0  0  0  0  0
    4.7473    2.2458   -0.4262 H   0  0  0  0  0  0  0  0  0  0  0  0
    5.6115    0.8773   -0.9828 H   0  0  0  0  0  0  0  0  0  0  0  0
    1.5148    0.5957    1.5981 H   0  0  0  0  0  0  0  0  0  0  0  0
   -0.5618   -2.0984   -1.0571 H   0  0  0  0  0  0  0  0  0  0  0  0
    1.5474   -2.6200   -2.1785 H   0  0  0  0  0  0  0  0  0  0  0  0
   -1.5202   -0.1441    2.8745 H   0  0  0  0  0  0  0  0  0  0  0  0
   -1.4680   -2.3942    1.6917 H   0  0  0  0  0  0  0  0  0  0  0  0
   -5.0573   -0.1337   -0.8861 H   0  0  0  0  0  0  0  0  0  0  0  0
   -4.7330    2.1902   -1.7666 H   0  0  0  0  0  0  0  0  0  0  0  0
   -2.6204    3.4093   -1.3225 H   0  0  0  0  0  0  0  0  0  0  0  0
   -0.7912    2.3449   -0.0062 H   0  0  0  0  0  0  0  0  0  0  0  0
  1  2  1  0
  2  3  2  0
  2  4  2  0
  2  5  1  0
  5  6  2  0
  6  7  1  0
  7  8  2  0
  8  9  1  0
  9 10  2  0
 10 11  1  0
  7 12  1  0
 12 13  1  0
 12 14  1  0
 14 15  1  0
 15 16  2  0
 15 17  1  0
 17 18  2  0
 18 19  1  0
 19 20  2  0
 20 21  1  0
 21 22  2  0
 10  5  1  0
 22 12  1  0
 22 17  1  0
  1 23  1  0
  1 24  1  0
  6 25  1  0
  8 26  1  0
  9 27  1  0
 13 28  1  0
 14 29  1  0
 18 30  1  0
 19 31  1  0
 20 32  1  0
 21 33  1  0
M  END
>  <Energy>  (2) 
-105.41550627521751

>  <Real charge>  (2) 
0

>  <Mult>  (2) 
1

$$$$
mol_1118 397
     RDKit          3D

 33 35  0  0  0  0  0  0  0  0999 V2000
    4.2814    0.3226   -2.2024 N   0  0  0  0  0  0  0  0  0  0  0  0
    3.0467    1.2952   -1.6147 S   0  0  0  0  0  6  0  0  0  0  0  0
    3.6495    2.5117   -1.1273 O   0  0  0  0  0  0  0  0  0  0  0  0
    2.0599    1.3093   -2.6716 O   0  0  0  0  0  0  0  0  0  0  0  0
    2.4097    0.3665   -0.2555 C   0  0  0  0  0  0  0  0  0  0  0  0
    1.0712   -0.0648   -0.3126 C   0  0  0  0  0  0  0  0  0  0  0  0
    0.4908   -0.7906    0.7467 C   0  0  0  0  0  0  0  0  0  0  0  0
    1.2929   -1.0635    1.8659 C   0  0  0  0  0  0  0  0  0  0  0  0
    2.6237   -0.6360    1.9221 C   0  0  0  0  0  0  0  0  0  0  0  0
    3.1901    0.0810    0.8639 C   0  0  0  0  0  0  0  0  0  0  0  0
    4.8437    0.5441    1.0403 Cl  0  0  0  0  0  0  0  0  0  0  0  0
   -0.9607   -1.2413    0.6864 C   0  0  0  0  0  0  0  0  0  0  0  0
   -1.2867   -2.1171    1.7412 O   0  0  0  0  0  0  0  0  0  0  0  0
   -1.2541   -1.9733   -0.5089 N   0  0  0  0  0  0  0  0  0  0  0  0
   -2.2285   -1.3761   -1.2769 C   0  0  0  0  0  0  0  0  0  0  0  0
   -2.6155   -1.7372   -2.3685 O   0  0  0  0  0  0  0  0  0  0  0  0
   -2.7071   -0.2089   -0.5291 C   0  0  0  0  0  0  0  0  0  0  0  0
   -3.7007    0.6924   -0.8568 C   0  0  0  0  0  0  0  0  0  0  0  0
   -3.9529    1.7211    0.0520 C   0  0  0  0  0  0  0  0  0  0  0  0
   -3.2165    1.8195    1.2483 C   0  0  0  0  0  0  0  0  0  0  0  0
   -2.2125    0.8938    1.5552 C   0  0  0  0  0  0  0  0  0  0  0  0
   -1.9602   -0.1220    0.6472 C   0  0  0  0  0  0  0  0  0  0  0  0
    5.1808    0.7898   -2.0756 H   0  0  0  0  0  0  0  0  0  0  0  0
    4.0852    0.0593   -3.1687 H   0  0  0  0  0  0  0  0  0  0  0  0
    0.4690    0.1729   -1.1905 H   0  0  0  0  0  0  0  0  0  0  0  0
    0.8861   -1.6155    2.7131 H   0  0  0  0  0  0  0  0  0  0  0  0
    3.2152   -0.8691    2.8058 H   0  0  0  0  0  0  0  0  0  0  0  0
   -1.9568   -2.7042    1.3542 H   0  0  0  0  0  0  0  0  0  0  0  0
   -0.6774   -2.7168   -0.8744 H   0  0  0  0  0  0  0  0  0  0  0  0
   -4.2583    0.6002   -1.7829 H   0  0  0  0  0  0  0  0  0  0  0  0
   -4.7266    2.4551   -0.1642 H   0  0  0  0  0  0  0  0  0  0  0  0
   -3.4326    2.6291    1.9432 H   0  0  0  0  0  0  0  0  0  0  0  0
   -1.6489    0.9728    2.4802 H   0  0  0  0  0  0  0  0  0  0  0  0
  1  2  1  0
  2  3  2  0
  2  4  2  0
  2  5  1  0
  5  6  2  0
  6  7  1  0
  7  8  2  0
  8  9  1  0
  9 10  2  0
 10 11  1  0
  7 12  1  0
 12 13  1  0
 12 14  1  0
 14 15  1  0
 15 16  2  0
 15 17  1  0
 17 18  2  0
 18 19  1  0
 19 20  2  0
 20 21  1  0
 21 22  2  0
 10  5  1  0
 22 12  1  0
 22 17  1  0
  1 23  1  0
  1 24  1  0
  6 25  1  0
  8 26  1  0
  9 27  1  0
 13 28  1  0
 14 29  1  0
 18 30  1  0
 19 31  1  0
 20 32  1  0
 21 33  1  0
M  END
>  <Energy>  (3) 
-105.26077232735302

>  <Real charge>  (3) 
0

>  <Mult>  (3) 
1

$$$$
mol_1118 128
     RDKit          3D

 33 35  0  0  0  0  0  0  0  0999 V2000
    2.9565    2.1374    0.4175 N   0  0  0  0  0  0  0  0  0  0  0  0
    3.4609    1.3721   -0.9970 S   0  0  0  0  0  6  0  0  0  0  0  0
    4.7469    0.8074   -0.6639 O   0  0  0  0  0  0  0  0  0  0  0  0
    3.2641    2.3602   -2.0307 O   0  0  0  0  0  0  0  0  0  0  0  0
    2.3091    0.0588   -1.2375 C   0  0  0  0  0  0  0  0  0  0  0  0
    1.2670   -0.1461   -0.3170 C   0  0  0  0  0  0  0  0  0  0  0  0
    0.3353   -1.1903   -0.4902 C   0  0  0  0  0  0  0  0  0  0  0  0
    0.4773   -2.0133   -1.6188 C   0  0  0  0  0  0  0  0  0  0  0  0
    1.5152   -1.8101   -2.5336 C   0  0  0  0  0  0  0  0  0  0  0  0
    2.4359   -0.7753   -2.3480 C   0  0  0  0  0  0  0  0  0  0  0  0
    3.6790   -0.6110   -3.5336 Cl  0  0  0  0  0  0  0  0  0  0  0  0
   -0.8029   -1.3977    0.4978 C   0  0  0  0  0  0  0  0  0  0  0  0
   -1.4382   -2.6419    0.3190 O   0  0  0  0  0  0  0  0  0  0  0  0
   -0.3527   -1.4006    1.8579 N   0  0  0  0  0  0  0  0  0  0  0  0
   -0.9007   -0.3799    2.6027 C   0  0  0  0  0  0  0  0  0  0  0  0
   -0.6179   -0.0800    3.7438 O   0  0  0  0  0  0  0  0  0  0  0  0
   -1.8796    0.2974    1.7467 C   0  0  0  0  0  0  0  0  0  0  0  0
   -2.7239    1.3487    2.0458 C   0  0  0  0  0  0  0  0  0  0  0  0
   -3.5635    1.8014    1.0269 C   0  0  0  0  0  0  0  0  0  0  0  0
   -3.5375    1.1994   -0.2457 C   0  0  0  0  0  0  0  0  0  0  0  0
   -2.6694    0.1370   -0.5233 C   0  0  0  0  0  0  0  0  0  0  0  0
   -1.8330   -0.3056    0.4888 C   0  0  0  0  0  0  0  0  0  0  0  0
    2.7078    3.1045    0.1999 H   0  0  0  0  0  0  0  0  0  0  0  0
    3.6975    2.0633    1.1176 H   0  0  0  0  0  0  0  0  0  0  0  0
    1.1689    0.5108    0.5454 H   0  0  0  0  0  0  0  0  0  0  0  0
   -0.2248   -2.8277   -1.7976 H   0  0  0  0  0  0  0  0  0  0  0  0
    1.5974   -2.4694   -3.3958 H   0  0  0  0  0  0  0  0  0  0  0  0
   -1.6907   -2.9030    1.2197 H   0  0  0  0  0  0  0  0  0  0  0  0
    0.4549   -1.9119    2.1833 H   0  0  0  0  0  0  0  0  0  0  0  0
   -2.7320    1.7983    3.0331 H   0  0  0  0  0  0  0  0  0  0  0  0
   -4.2476    2.6260    1.2168 H   0  0  0  0  0  0  0  0  0  0  0  0
   -4.2040    1.5667   -1.0242 H   0  0  0  0  0  0  0  0  0  0  0  0
   -2.6552   -0.3256   -1.5059 H   0  0  0  0  0  0  0  0  0  0  0  0
  1  2  1  0
  2  3  2  0
  2  4  2  0
  2  5  1  0
  5  6  2  0
  6  7  1  0
  7  8  2  0
  8  9  1  0
  9 10  2  0
 10 11  1  0
  7 12  1  0
 12 13  1  0
 12 14  1  0
 14 15  1  0
 15 16  2  0
 15 17  1  0
 17 18  2  0
 18 19  1  0
 19 20  2  0
 20 21  1  0
 21 22  2  0
 10  5  1  0
 22 12  1  0
 22 17  1  0
  1 23  1  0
  1 24  1  0
  6 25  1  0
  8 26  1  0
  9 27  1  0
 13 28  1  0
 14 29  1  0
 18 30  1  0
 19 31  1  0
 20 32  1  0
 21 33  1  0
M  END
>  <Energy>  (4) 
-105.23852789421268

>  <Real charge>  (4) 
0

>  <Mult>  (4) 
1

$$$$
mol_1118 175
     RDKit          3D

 33 35  0  0  0  0  0  0  0  0999 V2000
    4.0138    1.1812    1.6261 N   0  0  0  0  0  0  0  0  0  0  0  0
    3.0751   -0.1147    2.1318 S   0  0  0  0  0  6  0  0  0  0  0  0
    3.9709   -1.1249    2.6396 O   0  0  0  0  0  0  0  0  0  0  0  0
    2.0531    0.4809    2.9635 O   0  0  0  0  0  0  0  0  0  0  0  0
    2.3292   -0.6867    0.6379 C   0  0  0  0  0  0  0  0  0  0  0  0
    0.9256   -0.6525    0.5388 C   0  0  0  0  0  0  0  0  0  0  0  0
    0.2635   -1.1048   -0.6198 C   0  0  0  0  0  0  0  0  0  0  0  0
    1.0533   -1.5867   -1.6757 C   0  0  0  0  0  0  0  0  0  0  0  0
    2.4479   -1.6253   -1.5752 C   0  0  0  0  0  0  0  0  0  0  0  0
    3.0943   -1.1778   -0.4191 C   0  0  0  0  0  0  0  0  0  0  0  0
    4.8185   -1.2627   -0.4144 Cl  0  0  0  0  0  0  0  0  0  0  0  0
   -1.2520   -1.0455   -0.7336 C   0  0  0  0  0  0  0  0  0  0  0  0
   -1.7270   -1.7903   -1.8314 O   0  0  0  0  0  0  0  0  0  0  0  0
   -1.9124   -1.6035    0.4079 N   0  0  0  0  0  0  0  0  0  0  0  0
   -2.7123   -0.6921    1.0607 C   0  0  0  0  0  0  0  0  0  0  0  0
   -3.3231   -0.8700    2.0937 O   0  0  0  0  0  0  0  0  0  0  0  0
   -2.6794    0.5462    0.2762 C   0  0  0  0  0  0  0  0  0  0  0  0
   -3.3447    1.7368    0.4934 C   0  0  0  0  0  0  0  0  0  0  0  0
   -3.1295    2.7642   -0.4263 C   0  0  0  0  0  0  0  0  0  0  0  0
   -2.2680    2.5766   -1.5242 C   0  0  0  0  0  0  0  0  0  0  0  0
   -1.6033    1.3602   -1.7194 C   0  0  0  0  0  0  0  0  0  0  0  0
   -1.8139    0.3449   -0.8002 C   0  0  0  0  0  0  0  0  0  0  0  0
    3.7013    2.0362    2.0874 H   0  0  0  0  0  0  0  0  0  0  0  0
    5.0025    0.9702    1.7713 H   0  0  0  0  0  0  0  0  0  0  0  0
    0.3391   -0.2669    1.3737 H   0  0  0  0  0  0  0  0  0  0  0  0
    0.5861   -1.9403   -2.5948 H   0  0  0  0  0  0  0  0  0  0  0  0
    3.0264   -2.0091   -2.4138 H   0  0  0  0  0  0  0  0  0  0  0  0
   -2.5712   -2.1515   -1.5148 H   0  0  0  0  0  0  0  0  0  0  0  0
   -1.6618   -2.4832    0.8356 H   0  0  0  0  0  0  0  0  0  0  0  0
   -4.0064    1.8619    1.3441 H   0  0  0  0  0  0  0  0  0  0  0  0
   -3.6337    3.7196   -0.2962 H   0  0  0  0  0  0  0  0  0  0  0  0
   -2.1189    3.3907   -2.2312 H   0  0  0  0  0  0  0  0  0  0  0  0
   -0.9430    1.2190   -2.5700 H   0  0  0  0  0  0  0  0  0  0  0  0
  1  2  1  0
  2  3  2  0
  2  4  2  0
  2  5  1  0
  5  6  2  0
  6  7  1  0
  7  8  2  0
  8  9  1  0
  9 10  2  0
 10 11  1  0
  7 12  1  0
 12 13  1  0
 12 14  1  0
 14 15  1  0
 15 16  2  0
 15 17  1  0
 17 18  2  0
 18 19  1  0
 19 20  2  0
 20 21  1  0
 21 22  2  0
 10  5  1  0
 22 12  1  0
 22 17  1  0
  1 23  1  0
  1 24  1  0
  6 25  1  0
  8 26  1  0
  9 27  1  0
 13 28  1  0
 14 29  1  0
 18 30  1  0
 19 31  1  0
 20 32  1  0
 21 33  1  0
M  END
>  <Energy>  (5) 
-105.17383551550431

>  <Real charge>  (5) 
0

>  <Mult>  (5) 
1

$$$$
mol_1118 81
     RDKit          3D

 33 35  0  0  0  0  0  0  0  0999 V2000
    4.1304    1.3064    1.0340 N   0  0  0  0  0  0  0  0  0  0  0  0
    4.3489    0.0397   -0.0559 S   0  0  0  0  0  6  0  0  0  0  0  0
    4.7405    0.6878   -1.2851 O   0  0  0  0  0  0  0  0  0  0  0  0
    5.1821   -0.9039    0.6507 O   0  0  0  0  0  0  0  0  0  0  0  0
    2.7467   -0.6636   -0.2699 C   0  0  0  0  0  0  0  0  0  0  0  0
    1.6416   -0.1326    0.4169 C   0  0  0  0  0  0  0  0  0  0  0  0
    0.3539   -0.6818    0.2619 C   0  0  0  0  0  0  0  0  0  0  0  0
    0.2068   -1.7714   -0.6147 C   0  0  0  0  0  0  0  0  0  0  0  0
    1.3067   -2.2995   -1.2976 C   0  0  0  0  0  0  0  0  0  0  0  0
    2.5807   -1.7504   -1.1283 C   0  0  0  0  0  0  0  0  0  0  0  0
    3.8697   -2.4758   -2.0175 Cl  0  0  0  0  0  0  0  0  0  0  0  0
   -0.8441   -0.0909    0.9898 C   0  0  0  0  0  0  0  0  0  0  0  0
   -0.4501    0.7200    2.0722 O   0  0  0  0  0  0  0  0  0  0  0  0
   -1.6910   -1.0923    1.5660 N   0  0  0  0  0  0  0  0  0  0  0  0
   -2.9641   -1.0783    1.0409 C   0  0  0  0  0  0  0  0  0  0  0  0
   -3.8500   -1.8771    1.2623 O   0  0  0  0  0  0  0  0  0  0  0  0
   -3.0441    0.0760    0.1404 C   0  0  0  0  0  0  0  0  0  0  0  0
   -4.1216    0.5473   -0.5837 C   0  0  0  0  0  0  0  0  0  0  0  0
   -3.9142    1.6823   -1.3689 C   0  0  0  0  0  0  0  0  0  0  0  0
   -2.6532    2.3074   -1.4085 C   0  0  0  0  0  0  0  0  0  0  0  0
   -1.5766    1.8069   -0.6670 C   0  0  0  0  0  0  0  0  0  0  0  0
   -1.7844    0.6761    0.1064 C   0  0  0  0  0  0  0  0  0  0  0  0
    4.3920    2.1828    0.5789 H   0  0  0  0  0  0  0  0  0  0  0  0
    4.6739    1.1138    1.8776 H   0  0  0  0  0  0  0  0  0  0  0  0
    1.7718    0.7188    1.0832 H   0  0  0  0  0  0  0  0  0  0  0  0
   -0.7715   -2.2220   -0.7802 H   0  0  0  0  0  0  0  0  0  0  0  0
    1.1588   -3.1447   -1.9676 H   0  0  0  0  0  0  0  0  0  0  0  0
   -1.1459    0.5726    2.7337 H   0  0  0  0  0  0  0  0  0  0  0  0
   -1.3498   -1.8869    2.0874 H   0  0  0  0  0  0  0  0  0  0  0  0
   -5.0867    0.0538   -0.5386 H   0  0  0  0  0  0  0  0  0  0  0  0
   -4.7347    2.0908   -1.9554 H   0  0  0  0  0  0  0  0  0  0  0  0
   -2.5156    3.1937   -2.0256 H   0  0  0  0  0  0  0  0  0  0  0  0
   -0.6069    2.2949   -0.6995 H   0  0  0  0  0  0  0  0  0  0  0  0
  1  2  1  0
  2  3  2  0
  2  4  2  0
  2  5  1  0
  5  6  2  0
  6  7  1  0
  7  8  2  0
  8  9  1  0
  9 10  2  0
 10 11  1  0
  7 12  1  0
 12 13  1  0
 12 14  1  0
 14 15  1  0
 15 16  2  0
 15 17  1  0
 17 18  2  0
 18 19  1  0
 19 20  2  0
 20 21  1  0
 21 22  2  0
 10  5  1  0
 22 12  1  0
 22 17  1  0
  1 23  1  0
  1 24  1  0
  6 25  1  0
  8 26  1  0
  9 27  1  0
 13 28  1  0
 14 29  1  0
 18 30  1  0
 19 31  1  0
 20 32  1  0
 21 33  1  0
M  END
>  <Energy>  (6) 
-105.13272654035599

>  <Real charge>  (6) 
0

>  <Mult>  (6) 
1

$$$$
