mol_124 5
     RDKit          3D

 15 15  0  0  0  0  0  0  0  0999 V2000
    2.5208   -1.1725    0.1267 O   0  0  0  0  0  0  0  0  0  0  0  0
    1.3819   -0.4270    0.0546 C   0  0  0  0  0  0  0  0  0  0  0  0
    1.4316    0.9623   -0.0405 C   0  0  0  0  0  0  0  0  0  0  0  0
    0.2437    1.6930   -0.1125 C   0  0  0  0  0  0  0  0  0  0  0  0
   -0.9870    1.0330   -0.0892 C   0  0  0  0  0  0  0  0  0  0  0  0
   -1.0190   -0.3662    0.0068 C   0  0  0  0  0  0  0  0  0  0  0  0
    0.1676   -1.1037    0.0792 C   0  0  0  0  0  0  0  0  0  0  0  0
   -2.3099   -1.0629    0.0315 N   0  0  0  0  0  4  0  0  0  0  0  0
   -2.2998   -2.2990    0.1170 O   0  0  0  0  0  1  0  0  0  0  0  0
   -3.3376   -0.3727   -0.0348 O   0  0  0  0  0  0  0  0  0  0  0  0
    3.2914   -0.5810    0.0998 H   0  0  0  0  0  0  0  0  0  0  0  0
    2.3807    1.4903   -0.0597 H   0  0  0  0  0  0  0  0  0  0  0  0
    0.2762    2.7778   -0.1868 H   0  0  0  0  0  0  0  0  0  0  0  0
   -1.9035    1.6170   -0.1462 H   0  0  0  0  0  0  0  0  0  0  0  0
    0.1631   -2.1883    0.1540 H   0  0  0  0  0  0  0  0  0  0  0  0
  1  2  1  0
  2  3  2  0
  3  4  1  0
  4  5  2  0
  5  6  1  0
  6  7  2  0
  6  8  1  0
  8  9  1  0
  8 10  2  0
  7  2  1  0
  1 11  1  0
  3 12  1  0
  4 13  1  0
  5 14  1  0
  7 15  1  0
M  CHG  2   8   1   9  -1
M  END
>  <Energy>  (1) 
32.23851966170832

>  <Real charge>  (1) 
0

>  <Mult>  (1) 
1

$$$$
mol_124 170
     RDKit          3D

 15 15  0  0  0  0  0  0  0  0999 V2000
   -2.6865   -0.7938   -0.2558 O   0  0  0  0  0  0  0  0  0  0  0  0
   -1.4548   -0.2219   -0.1364 C   0  0  0  0  0  0  0  0  0  0  0  0
   -1.3905    1.1689   -0.1160 C   0  0  0  0  0  0  0  0  0  0  0  0
   -0.1567    1.8098    0.0043 C   0  0  0  0  0  0  0  0  0  0  0  0
    1.0132    1.0553    0.1043 C   0  0  0  0  0  0  0  0  0  0  0  0
    0.9339   -0.3451    0.0825 C   0  0  0  0  0  0  0  0  0  0  0  0
   -0.3028   -0.9945   -0.0382 C   0  0  0  0  0  0  0  0  0  0  0  0
    2.1614   -1.1426    0.1873 N   0  0  0  0  0  4  0  0  0  0  0  0
    3.2372   -0.5369    0.2927 O   0  0  0  0  0  1  0  0  0  0  0  0
    2.0491   -2.3769    0.1642 O   0  0  0  0  0  0  0  0  0  0  0  0
   -2.5950   -1.7615   -0.2574 H   0  0  0  0  0  0  0  0  0  0  0  0
   -2.3039    1.7540   -0.1941 H   0  0  0  0  0  0  0  0  0  0  0  0
   -0.1095    2.8963    0.0200 H   0  0  0  0  0  0  0  0  0  0  0  0
    1.9686    1.5678    0.1977 H   0  0  0  0  0  0  0  0  0  0  0  0
   -0.3637   -2.0788   -0.0551 H   0  0  0  0  0  0  0  0  0  0  0  0
  1  2  1  0
  2  3  2  0
  3  4  1  0
  4  5  2  0
  5  6  1  0
  6  7  2  0
  6  8  1  0
  8  9  1  0
  8 10  2  0
  7  2  1  0
  1 11  1  0
  3 12  1  0
  4 13  1  0
  5 14  1  0
  7 15  1  0
M  CHG  2   8   1   9  -1
M  END
>  <Energy>  (2) 
32.406119370571176

>  <Real charge>  (2) 
0

>  <Mult>  (2) 
1

$$$$
