mol_498 10
     RDKit          3D

 32 36  0  0  0  0  0  0  0  0999 V2000
    4.9166   -0.8215   -0.3046 C   0  0  0  0  0  0  0  0  0  0  0  0
    4.9216    0.5218   -0.6684 C   0  0  0  0  0  0  0  0  0  0  0  0
    3.7227    1.2341   -0.7326 C   0  0  0  0  0  0  0  0  0  0  0  0
    2.5006    0.6133   -0.4338 C   0  0  0  0  0  0  0  0  0  0  0  0
    1.2959    1.3358   -0.5001 C   0  0  0  0  0  0  0  0  0  0  0  0
    0.1165    0.6819   -0.1969 C   0  0  0  0  0  0  0  0  0  0  0  0
   -1.2671    1.1377   -0.1719 C   0  0  0  0  0  0  0  0  0  0  0  0
   -1.8662    2.3556   -0.4371 C   0  0  0  0  0  0  0  0  0  0  0  0
   -3.2643    2.4556   -0.3143 C   0  0  0  0  0  0  0  0  0  0  0  0
   -4.0512    1.3473    0.0697 C   0  0  0  0  0  0  0  0  0  0  0  0
   -3.4450    0.1049    0.3407 C   0  0  0  0  0  0  0  0  0  0  0  0
   -4.0602   -1.1002    0.7326 C   0  0  0  0  0  0  0  0  0  0  0  0
   -3.2816   -2.2562    0.9617 C   0  0  0  0  0  0  0  0  0  0  0  0
   -1.8831   -2.2414    0.8079 C   0  0  0  0  0  0  0  0  0  0  0  0
   -1.2752   -1.0603    0.4233 C   0  0  0  0  0  0  0  0  0  0  0  0
    0.1114   -0.6889    0.1743 C   0  0  0  0  0  0  0  0  0  0  0  0
    1.2858   -1.4144    0.2447 C   0  0  0  0  0  0  0  0  0  0  0  0
    2.4956   -0.7655   -0.0604 C   0  0  0  0  0  0  0  0  0  0  0  0
    3.7128   -1.4606   -0.0028 C   0  0  0  0  0  0  0  0  0  0  0  0
   -2.0598    0.0627    0.2037 C   0  0  0  0  0  0  0  0  0  0  0  0
    5.8511   -1.3746   -0.2552 H   0  0  0  0  0  0  0  0  0  0  0  0
    5.8599    1.0178   -0.9031 H   0  0  0  0  0  0  0  0  0  0  0  0
    3.7519    2.2830   -1.0194 H   0  0  0  0  0  0  0  0  0  0  0  0
    1.2852    2.3832   -0.7822 H   0  0  0  0  0  0  0  0  0  0  0  0
   -1.2792    3.2183   -0.7332 H   0  0  0  0  0  0  0  0  0  0  0  0
   -3.7509    3.4070   -0.5195 H   0  0  0  0  0  0  0  0  0  0  0  0
   -5.1290    1.4594    0.1549 H   0  0  0  0  0  0  0  0  0  0  0  0
   -5.1386   -1.1466    0.8606 H   0  0  0  0  0  0  0  0  0  0  0  0
   -3.7751   -3.1778    1.2638 H   0  0  0  0  0  0  0  0  0  0  0  0
   -1.3026   -3.1396    0.9886 H   0  0  0  0  0  0  0  0  0  0  0  0
    1.2674   -2.4610    0.5297 H   0  0  0  0  0  0  0  0  0  0  0  0
    3.7342   -2.5111    0.2790 H   0  0  0  0  0  0  0  0  0  0  0  0
  1  2  2  0
  2  3  1  0
  3  4  2  0
  4  5  1  0
  5  6  2  0
  6  7  1  0
  7  8  2  0
  8  9  1  0
  9 10  2  0
 10 11  1  0
 11 12  1  0
 12 13  2  0
 13 14  1  0
 14 15  2  0
 15 16  1  0
 16 17  2  0
 17 18  1  0
 18 19  2  0
 15 20  1  0
 19  1  1  0
 18  4  1  0
 16  6  1  0
 20  7  1  0
 20 11  2  0
  1 21  1  0
  2 22  1  0
  3 23  1  0
  5 24  1  0
  8 25  1  0
  9 26  1  0
 10 27  1  0
 12 28  1  0
 13 29  1  0
 14 30  1  0
 17 31  1  0
 19 32  1  0
M  END
>  <Energy>  (1) 
89.25437560621965

>  <Real charge>  (1) 
0

>  <Mult>  (1) 
1

$$$$
