mol_558 66
     RDKit          3D

 54 54  0  0  0  0  0  0  0  0999 V2000
    1.5733    3.8430   -0.9624 C   0  0  0  0  0  0  0  0  0  0  0  0
    2.0383    2.5086   -0.4032 C   0  0  0  0  0  0  0  0  0  0  0  0
    1.4091    2.2261    0.9605 C   0  0  0  0  0  0  0  0  0  0  0  0
    1.8713    0.8788    1.5175 C   0  0  0  0  0  0  0  0  0  0  0  0
    1.2196    0.5861    2.8721 C   0  0  0  0  0  0  0  0  0  0  0  0
    1.6588   -0.7548    3.4556 C   0  0  0  0  0  0  0  0  0  0  0  0
    1.3121   -1.7936    2.5319 O   0  0  0  0  0  0  0  0  0  0  0  0
    1.2503   -3.0378    3.0582 C   0  0  0  0  0  0  0  0  0  0  0  0
    1.5496   -3.3675    4.1934 O   0  0  0  0  0  0  0  0  0  0  0  0
    0.8819   -3.9977    1.9956 C   0  0  0  0  0  0  0  0  0  0  0  0
    1.5722   -5.2192    1.9692 C   0  0  0  0  0  0  0  0  0  0  0  0
    1.3155   -6.1520    0.9621 C   0  0  0  0  0  0  0  0  0  0  0  0
    0.3664   -5.8755   -0.0213 C   0  0  0  0  0  0  0  0  0  0  0  0
   -0.3390   -4.6713    0.0074 C   0  0  0  0  0  0  0  0  0  0  0  0
   -0.0865   -3.7319    1.0196 C   0  0  0  0  0  0  0  0  0  0  0  0
   -0.9168   -2.5154    1.0783 C   0  0  0  0  0  0  0  0  0  0  0  0
   -1.5364   -2.1593    2.0651 O   0  0  0  0  0  0  0  0  0  0  0  0
   -0.8540   -1.8888   -0.1216 O   0  0  0  0  0  0  0  0  0  0  0  0
   -1.5915   -0.6607   -0.1762 C   0  0  0  0  0  0  0  0  0  0  0  0
   -1.3210   -0.0083   -1.5273 C   0  0  0  0  0  0  0  0  0  0  0  0
   -2.0945    1.2994   -1.6889 C   0  0  0  0  0  0  0  0  0  0  0  0
   -1.8231    1.9394   -3.0523 C   0  0  0  0  0  0  0  0  0  0  0  0
   -2.7070    3.1560   -3.3362 C   0  0  0  0  0  0  0  0  0  0  0  0
   -2.4296    4.3384   -2.4217 C   0  0  0  0  0  0  0  0  0  0  0  0
    2.0201    4.0195   -1.9457 H   0  0  0  0  0  0  0  0  0  0  0  0
    0.4852    3.8605   -1.0746 H   0  0  0  0  0  0  0  0  0  0  0  0
    1.8638    4.6673   -0.3034 H   0  0  0  0  0  0  0  0  0  0  0  0
    3.1309    2.5147   -0.3164 H   0  0  0  0  0  0  0  0  0  0  0  0
    1.7732    1.7122   -1.1081 H   0  0  0  0  0  0  0  0  0  0  0  0
    0.3163    2.2299    0.8675 H   0  0  0  0  0  0  0  0  0  0  0  0
    1.6763    3.0255    1.6623 H   0  0  0  0  0  0  0  0  0  0  0  0
    1.6193    0.0878    0.8011 H   0  0  0  0  0  0  0  0  0  0  0  0
    2.9623    0.8795    1.6281 H   0  0  0  0  0  0  0  0  0  0  0  0
    1.4619    1.3844    3.5830 H   0  0  0  0  0  0  0  0  0  0  0  0
    0.1303    0.5776    2.7437 H   0  0  0  0  0  0  0  0  0  0  0  0
    1.1552   -0.9072    4.4174 H   0  0  0  0  0  0  0  0  0  0  0  0
    2.7433   -0.7683    3.6101 H   0  0  0  0  0  0  0  0  0  0  0  0
    2.3189   -5.4415    2.7301 H   0  0  0  0  0  0  0  0  0  0  0  0
    1.8579   -7.0949    0.9454 H   0  0  0  0  0  0  0  0  0  0  0  0
    0.1667   -6.6044   -0.8038 H   0  0  0  0  0  0  0  0  0  0  0  0
   -1.0960   -4.4749   -0.7491 H   0  0  0  0  0  0  0  0  0  0  0  0
   -2.6602   -0.8784   -0.0669 H   0  0  0  0  0  0  0  0  0  0  0  0
   -1.2685    0.0047    0.6326 H   0  0  0  0  0  0  0  0  0  0  0  0
   -0.2441    0.1707   -1.6351 H   0  0  0  0  0  0  0  0  0  0  0  0
   -1.5897   -0.7098   -2.3271 H   0  0  0  0  0  0  0  0  0  0  0  0
   -1.8081    1.9897   -0.8874 H   0  0  0  0  0  0  0  0  0  0  0  0
   -3.1680    1.1029   -1.5818 H   0  0  0  0  0  0  0  0  0  0  0  0
   -0.7663    2.2240   -3.1241 H   0  0  0  0  0  0  0  0  0  0  0  0
   -2.0048    1.1972   -3.8396 H   0  0  0  0  0  0  0  0  0  0  0  0
   -2.5410    3.4723   -4.3730 H   0  0  0  0  0  0  0  0  0  0  0  0
   -3.7636    2.8746   -3.2572 H   0  0  0  0  0  0  0  0  0  0  0  0
   -1.3825    4.6482   -2.4896 H   0  0  0  0  0  0  0  0  0  0  0  0
   -2.6562    4.1031   -1.3779 H   0  0  0  0  0  0  0  0  0  0  0  0
   -3.0518    5.1911   -2.7123 H   0  0  0  0  0  0  0  0  0  0  0  0
  1  2  1  0
  2  3  1  0
  3  4  1  0
  4  5  1  0
  5  6  1  0
  6  7  1  0
  7  8  1  0
  8  9  2  0
  8 10  1  0
 10 11  2  0
 11 12  1  0
 12 13  2  0
 13 14  1  0
 14 15  2  0
 15 16  1  0
 16 17  2  0
 16 18  1  0
 18 19  1  0
 19 20  1  0
 20 21  1  0
 21 22  1  0
 22 23  1  0
 23 24  1  0
 15 10  1  0
  1 25  1  0
  1 26  1  0
  1 27  1  0
  2 28  1  0
  2 29  1  0
  3 30  1  0
  3 31  1  0
  4 32  1  0
  4 33  1  0
  5 34  1  0
  5 35  1  0
  6 36  1  0
  6 37  1  0
 11 38  1  0
 12 39  1  0
 13 40  1  0
 14 41  1  0
 19 42  1  0
 19 43  1  0
 20 44  1  0
 20 45  1  0
 21 46  1  0
 21 47  1  0
 22 48  1  0
 22 49  1  0
 23 50  1  0
 23 51  1  0
 24 52  1  0
 24 53  1  0
 24 54  1  0
M  END
>  <Energy>  (1) 
14.922684018353802

>  <Real charge>  (1) 
0

>  <Mult>  (1) 
1

$$$$
mol_558 235
     RDKit          3D

 54 54  0  0  0  0  0  0  0  0999 V2000
    3.0541   -1.4938   -4.3919 C   0  0  0  0  0  0  0  0  0  0  0  0
    2.2538   -0.9889   -3.2022 C   0  0  0  0  0  0  0  0  0  0  0  0
    2.9802    0.1453   -2.4789 C   0  0  0  0  0  0  0  0  0  0  0  0
    2.1673    0.6471   -1.2852 C   0  0  0  0  0  0  0  0  0  0  0  0
    2.8850    1.7831   -0.5530 C   0  0  0  0  0  0  0  0  0  0  0  0
    2.0527    2.3397    0.5991 C   0  0  0  0  0  0  0  0  0  0  0  0
    1.8503    1.3117    1.5770 O   0  0  0  0  0  0  0  0  0  0  0  0
    1.1040    1.7021    2.6384 C   0  0  0  0  0  0  0  0  0  0  0  0
    0.6416    2.8120    2.8406 O   0  0  0  0  0  0  0  0  0  0  0  0
    1.0308    0.5967    3.6118 C   0  0  0  0  0  0  0  0  0  0  0  0
    1.3529    0.9037    4.9430 C   0  0  0  0  0  0  0  0  0  0  0  0
    1.3729   -0.1014    5.9114 C   0  0  0  0  0  0  0  0  0  0  0  0
    1.0725   -1.4157    5.5579 C   0  0  0  0  0  0  0  0  0  0  0  0
    0.7315   -1.7241    4.2394 C   0  0  0  0  0  0  0  0  0  0  0  0
    0.6897   -0.7160    3.2633 C   0  0  0  0  0  0  0  0  0  0  0  0
    0.2470   -1.1149    1.9118 C   0  0  0  0  0  0  0  0  0  0  0  0
    0.5645   -2.1669    1.3823 O   0  0  0  0  0  0  0  0  0  0  0  0
   -0.6304   -0.2009    1.4340 O   0  0  0  0  0  0  0  0  0  0  0  0
   -1.1911   -0.5290    0.1548 C   0  0  0  0  0  0  0  0  0  0  0  0
   -1.9095    0.7083   -0.3718 C   0  0  0  0  0  0  0  0  0  0  0  0
   -2.4381    0.5507   -1.7979 C   0  0  0  0  0  0  0  0  0  0  0  0
   -3.4338   -0.5926   -2.0140 C   0  0  0  0  0  0  0  0  0  0  0  0
   -4.7007   -0.4628   -1.1682 C   0  0  0  0  0  0  0  0  0  0  0  0
   -5.7031   -1.5579   -1.4995 C   0  0  0  0  0  0  0  0  0  0  0  0
    4.0286   -1.8783   -4.0745 H   0  0  0  0  0  0  0  0  0  0  0  0
    3.2206   -0.6940   -5.1206 H   0  0  0  0  0  0  0  0  0  0  0  0
    2.5163   -2.3042   -4.8940 H   0  0  0  0  0  0  0  0  0  0  0  0
    2.0767   -1.8195   -2.5090 H   0  0  0  0  0  0  0  0  0  0  0  0
    1.2734   -0.6419   -3.5490 H   0  0  0  0  0  0  0  0  0  0  0  0
    3.1583    0.9723   -3.1770 H   0  0  0  0  0  0  0  0  0  0  0  0
    3.9609   -0.2053   -2.1352 H   0  0  0  0  0  0  0  0  0  0  0  0
    1.9918   -0.1849   -0.5938 H   0  0  0  0  0  0  0  0  0  0  0  0
    1.1874    0.9965   -1.6317 H   0  0  0  0  0  0  0  0  0  0  0  0
    3.8382    1.4063   -0.1628 H   0  0  0  0  0  0  0  0  0  0  0  0
    3.1094    2.5938   -1.2557 H   0  0  0  0  0  0  0  0  0  0  0  0
    1.0843    2.6955    0.2281 H   0  0  0  0  0  0  0  0  0  0  0  0
    2.5913    3.1753    1.0611 H   0  0  0  0  0  0  0  0  0  0  0  0
    1.6017    1.9260    5.2236 H   0  0  0  0  0  0  0  0  0  0  0  0
    1.6304    0.1404    6.9403 H   0  0  0  0  0  0  0  0  0  0  0  0
    1.0955   -2.2008    6.3106 H   0  0  0  0  0  0  0  0  0  0  0  0
    0.4838   -2.7513    3.9757 H   0  0  0  0  0  0  0  0  0  0  0  0
   -1.8935   -1.3584    0.2880 H   0  0  0  0  0  0  0  0  0  0  0  0
   -0.4009   -0.8287   -0.5424 H   0  0  0  0  0  0  0  0  0  0  0  0
   -1.2158    1.5585   -0.3469 H   0  0  0  0  0  0  0  0  0  0  0  0
   -2.7192    0.9833    0.3144 H   0  0  0  0  0  0  0  0  0  0  0  0
   -2.9089    1.4944   -2.1000 H   0  0  0  0  0  0  0  0  0  0  0  0
   -1.5878    0.4011   -2.4752 H   0  0  0  0  0  0  0  0  0  0  0  0
   -2.9496   -1.5556   -1.8143 H   0  0  0  0  0  0  0  0  0  0  0  0
   -3.7115   -0.6035   -3.0756 H   0  0  0  0  0  0  0  0  0  0  0  0
   -4.4554   -0.5244   -0.1026 H   0  0  0  0  0  0  0  0  0  0  0  0
   -5.1658    0.5145   -1.3409 H   0  0  0  0  0  0  0  0  0  0  0  0
   -6.0060   -1.5083   -2.5503 H   0  0  0  0  0  0  0  0  0  0  0  0
   -5.2778   -2.5487   -1.3103 H   0  0  0  0  0  0  0  0  0  0  0  0
   -6.6004   -1.4496   -0.8823 H   0  0  0  0  0  0  0  0  0  0  0  0
  1  2  1  0
  2  3  1  0
  3  4  1  0
  4  5  1  0
  5  6  1  0
  6  7  1  0
  7  8  1  0
  8  9  2  0
  8 10  1  0
 10 11  2  0
 11 12  1  0
 12 13  2  0
 13 14  1  0
 14 15  2  0
 15 16  1  0
 16 17  2  0
 16 18  1  0
 18 19  1  0
 19 20  1  0
 20 21  1  0
 21 22  1  0
 22 23  1  0
 23 24  1  0
 15 10  1  0
  1 25  1  0
  1 26  1  0
  1 27  1  0
  2 28  1  0
  2 29  1  0
  3 30  1  0
  3 31  1  0
  4 32  1  0
  4 33  1  0
  5 34  1  0
  5 35  1  0
  6 36  1  0
  6 37  1  0
 11 38  1  0
 12 39  1  0
 13 40  1  0
 14 41  1  0
 19 42  1  0
 19 43  1  0
 20 44  1  0
 20 45  1  0
 21 46  1  0
 21 47  1  0
 22 48  1  0
 22 49  1  0
 23 50  1  0
 23 51  1  0
 24 52  1  0
 24 53  1  0
 24 54  1  0
M  END
>  <Energy>  (2) 
15.524288260313268

>  <Real charge>  (2) 
0

>  <Mult>  (2) 
1

$$$$
mol_558 365
     RDKit          3D

 54 54  0  0  0  0  0  0  0  0999 V2000
   -5.1303    0.8002   -3.7053 C   0  0  0  0  0  0  0  0  0  0  0  0
   -4.8100    0.3500   -2.2889 C   0  0  0  0  0  0  0  0  0  0  0  0
   -3.4729   -0.3876   -2.2246 C   0  0  0  0  0  0  0  0  0  0  0  0
   -3.1542   -0.8383   -0.7979 C   0  0  0  0  0  0  0  0  0  0  0  0
   -1.8135   -1.5755   -0.7356 C   0  0  0  0  0  0  0  0  0  0  0  0
   -1.4849   -2.0626    0.6729 C   0  0  0  0  0  0  0  0  0  0  0  0
   -1.3707   -0.9300    1.5429 O   0  0  0  0  0  0  0  0  0  0  0  0
   -0.9046   -1.2195    2.7806 C   0  0  0  0  0  0  0  0  0  0  0  0
   -0.6392   -2.3258    3.2199 O   0  0  0  0  0  0  0  0  0  0  0  0
   -0.8657    0.0143    3.5922 C   0  0  0  0  0  0  0  0  0  0  0  0
   -1.3594   -0.0736    4.9033 C   0  0  0  0  0  0  0  0  0  0  0  0
   -1.4177    1.0631    5.7120 C   0  0  0  0  0  0  0  0  0  0  0  0
   -0.9850    2.2930    5.2188 C   0  0  0  0  0  0  0  0  0  0  0  0
   -0.4743    2.3852    3.9229 C   0  0  0  0  0  0  0  0  0  0  0  0
   -0.3937    1.2429    3.1113 C   0  0  0  0  0  0  0  0  0  0  0  0
    0.2218    1.4127    1.7804 C   0  0  0  0  0  0  0  0  0  0  0  0
   -0.0051    2.3597    1.0465 O   0  0  0  0  0  0  0  0  0  0  0  0
    1.1232    0.4231    1.5743 O   0  0  0  0  0  0  0  0  0  0  0  0
    1.7953    0.4941    0.3091 C   0  0  0  0  0  0  0  0  0  0  0  0
    2.6207   -0.7780    0.1483 C   0  0  0  0  0  0  0  0  0  0  0  0
    3.3013   -0.9009   -1.2149 C   0  0  0  0  0  0  0  0  0  0  0  0
    4.3614    0.1743   -1.4623 C   0  0  0  0  0  0  0  0  0  0  0  0
    5.0858   -0.0579   -2.7890 C   0  0  0  0  0  0  0  0  0  0  0  0
    6.1385    1.0093   -3.0432 C   0  0  0  0  0  0  0  0  0  0  0  0
   -6.0903    1.3253   -3.7281 H   0  0  0  0  0  0  0  0  0  0  0  0
   -5.1953   -0.0563   -4.3839 H   0  0  0  0  0  0  0  0  0  0  0  0
   -4.3614    1.4813   -4.0838 H   0  0  0  0  0  0  0  0  0  0  0  0
   -5.6134   -0.3030   -1.9287 H   0  0  0  0  0  0  0  0  0  0  0  0
   -4.7841    1.2261   -1.6304 H   0  0  0  0  0  0  0  0  0  0  0  0
   -2.6733    0.2686   -2.5897 H   0  0  0  0  0  0  0  0  0  0  0  0
   -3.5026   -1.2606   -2.8880 H   0  0  0  0  0  0  0  0  0  0  0  0
   -3.1308    0.0369   -0.1376 H   0  0  0  0  0  0  0  0  0  0  0  0
   -3.9517   -1.4973   -0.4337 H   0  0  0  0  0  0  0  0  0  0  0  0
   -1.8304   -2.4343   -1.4164 H   0  0  0  0  0  0  0  0  0  0  0  0
   -1.0216   -0.8974   -1.0758 H   0  0  0  0  0  0  0  0  0  0  0  0
   -0.5354   -2.6103    0.6497 H   0  0  0  0  0  0  0  0  0  0  0  0
   -2.2761   -2.7252    1.0420 H   0  0  0  0  0  0  0  0  0  0  0  0
   -1.7125   -1.0276    5.2919 H   0  0  0  0  0  0  0  0  0  0  0  0
   -1.8084    0.9896    6.7246 H   0  0  0  0  0  0  0  0  0  0  0  0
   -1.0382    3.1802    5.8461 H   0  0  0  0  0  0  0  0  0  0  0  0
   -0.1262    3.3471    3.5494 H   0  0  0  0  0  0  0  0  0  0  0  0
    2.4398    1.3794    0.3037 H   0  0  0  0  0  0  0  0  0  0  0  0
    1.0591    0.5684   -0.4997 H   0  0  0  0  0  0  0  0  0  0  0  0
    1.9654   -1.6458    0.2969 H   0  0  0  0  0  0  0  0  0  0  0  0
    3.3666   -0.8342    0.9510 H   0  0  0  0  0  0  0  0  0  0  0  0
    2.5441   -0.8639   -2.0076 H   0  0  0  0  0  0  0  0  0  0  0  0
    3.7723   -1.8899   -1.2744 H   0  0  0  0  0  0  0  0  0  0  0  0
    5.0886    0.1698   -0.6413 H   0  0  0  0  0  0  0  0  0  0  0  0
    3.8946    1.1655   -1.4780 H   0  0  0  0  0  0  0  0  0  0  0  0
    5.5671   -1.0428   -2.7837 H   0  0  0  0  0  0  0  0  0  0  0  0
    4.3631   -0.0540   -3.6133 H   0  0  0  0  0  0  0  0  0  0  0  0
    6.6440    0.8236   -3.9960 H   0  0  0  0  0  0  0  0  0  0  0  0
    5.6853    2.0048   -3.0874 H   0  0  0  0  0  0  0  0  0  0  0  0
    6.8948    1.0106   -2.2518 H   0  0  0  0  0  0  0  0  0  0  0  0
  1  2  1  0
  2  3  1  0
  3  4  1  0
  4  5  1  0
  5  6  1  0
  6  7  1  0
  7  8  1  0
  8  9  2  0
  8 10  1  0
 10 11  2  0
 11 12  1  0
 12 13  2  0
 13 14  1  0
 14 15  2  0
 15 16  1  0
 16 17  2  0
 16 18  1  0
 18 19  1  0
 19 20  1  0
 20 21  1  0
 21 22  1  0
 22 23  1  0
 23 24  1  0
 15 10  1  0
  1 25  1  0
  1 26  1  0
  1 27  1  0
  2 28  1  0
  2 29  1  0
  3 30  1  0
  3 31  1  0
  4 32  1  0
  4 33  1  0
  5 34  1  0
  5 35  1  0
  6 36  1  0
  6 37  1  0
 11 38  1  0
 12 39  1  0
 13 40  1  0
 14 41  1  0
 19 42  1  0
 19 43  1  0
 20 44  1  0
 20 45  1  0
 21 46  1  0
 21 47  1  0
 22 48  1  0
 22 49  1  0
 23 50  1  0
 23 51  1  0
 24 52  1  0
 24 53  1  0
 24 54  1  0
M  END
>  <Energy>  (3) 
15.61543897285284

>  <Real charge>  (3) 
0

>  <Mult>  (3) 
1

$$$$
mol_558 734
     RDKit          3D

 54 54  0  0  0  0  0  0  0  0999 V2000
    1.9769    4.1526    0.7426 C   0  0  0  0  0  0  0  0  0  0  0  0
    2.4476    2.7621    0.3478 C   0  0  0  0  0  0  0  0  0  0  0  0
    2.4484    1.8111    1.5443 C   0  0  0  0  0  0  0  0  0  0  0  0
    2.8833    0.4028    1.1348 C   0  0  0  0  0  0  0  0  0  0  0  0
    2.8493   -0.5566    2.3273 C   0  0  0  0  0  0  0  0  0  0  0  0
    3.3218   -1.9627    1.9598 C   0  0  0  0  0  0  0  0  0  0  0  0
    2.5656   -2.5083    0.8690 O   0  0  0  0  0  0  0  0  0  0  0  0
    1.3594   -3.0311    1.1976 C   0  0  0  0  0  0  0  0  0  0  0  0
    0.8673   -3.1118    2.3089 O   0  0  0  0  0  0  0  0  0  0  0  0
    0.6935   -3.4897   -0.0358 C   0  0  0  0  0  0  0  0  0  0  0  0
    1.3926   -4.3317   -0.9152 C   0  0  0  0  0  0  0  0  0  0  0  0
    0.7555   -4.8504   -2.0441 C   0  0  0  0  0  0  0  0  0  0  0  0
   -0.5811   -4.5422   -2.2950 C   0  0  0  0  0  0  0  0  0  0  0  0
   -1.2804   -3.7035   -1.4251 C   0  0  0  0  0  0  0  0  0  0  0  0
   -0.6416   -3.1630   -0.2988 C   0  0  0  0  0  0  0  0  0  0  0  0
   -1.4290   -2.2410    0.5435 C   0  0  0  0  0  0  0  0  0  0  0  0
   -2.5961   -2.4355    0.8376 O   0  0  0  0  0  0  0  0  0  0  0  0
   -0.6913   -1.1338    0.7937 O   0  0  0  0  0  0  0  0  0  0  0  0
   -1.3220   -0.1082    1.5751 C   0  0  0  0  0  0  0  0  0  0  0  0
   -1.5073    1.1451    0.7244 C   0  0  0  0  0  0  0  0  0  0  0  0
   -2.4992    0.9333   -0.4220 C   0  0  0  0  0  0  0  0  0  0  0  0
   -2.7006    2.2204   -1.2240 C   0  0  0  0  0  0  0  0  0  0  0  0
   -3.6865    2.0102   -2.3729 C   0  0  0  0  0  0  0  0  0  0  0  0
   -3.8893    3.2868   -3.1732 C   0  0  0  0  0  0  0  0  0  0  0  0
    2.6285    4.5848    1.5087 H   0  0  0  0  0  0  0  0  0  0  0  0
    0.9556    4.1235    1.1357 H   0  0  0  0  0  0  0  0  0  0  0  0
    1.9871    4.8173   -0.1269 H   0  0  0  0  0  0  0  0  0  0  0  0
    1.7920    2.3721   -0.4395 H   0  0  0  0  0  0  0  0  0  0  0  0
    3.4569    2.8288   -0.0748 H   0  0  0  0  0  0  0  0  0  0  0  0
    1.4449    1.7729    1.9844 H   0  0  0  0  0  0  0  0  0  0  0  0
    3.1244    2.1947    2.3182 H   0  0  0  0  0  0  0  0  0  0  0  0
    2.2204    0.0357    0.3422 H   0  0  0  0  0  0  0  0  0  0  0  0
    3.8975    0.4374    0.7193 H   0  0  0  0  0  0  0  0  0  0  0  0
    1.8242   -0.6025    2.7121 H   0  0  0  0  0  0  0  0  0  0  0  0
    3.4810   -0.1700    3.1356 H   0  0  0  0  0  0  0  0  0  0  0  0
    3.2811   -2.6305    2.8287 H   0  0  0  0  0  0  0  0  0  0  0  0
    4.3677   -1.9296    1.6355 H   0  0  0  0  0  0  0  0  0  0  0  0
    2.4281   -4.5994   -0.7150 H   0  0  0  0  0  0  0  0  0  0  0  0
    1.2982   -5.5060   -2.7218 H   0  0  0  0  0  0  0  0  0  0  0  0
   -1.0803   -4.9548   -3.1692 H   0  0  0  0  0  0  0  0  0  0  0  0
   -2.3228   -3.4639   -1.6294 H   0  0  0  0  0  0  0  0  0  0  0  0
   -0.6462    0.1169    2.4069 H   0  0  0  0  0  0  0  0  0  0  0  0
   -2.2741   -0.4289    2.0124 H   0  0  0  0  0  0  0  0  0  0  0  0
   -0.5402    1.4411    0.3015 H   0  0  0  0  0  0  0  0  0  0  0  0
   -1.8535    1.9634    1.3662 H   0  0  0  0  0  0  0  0  0  0  0  0
   -3.4616    0.5974   -0.0173 H   0  0  0  0  0  0  0  0  0  0  0  0
   -2.1349    0.1445   -1.0905 H   0  0  0  0  0  0  0  0  0  0  0  0
   -1.7368    2.5586   -1.6240 H   0  0  0  0  0  0  0  0  0  0  0  0
   -3.0714    3.0122   -0.5618 H   0  0  0  0  0  0  0  0  0  0  0  0
   -4.6530    1.6760   -1.9779 H   0  0  0  0  0  0  0  0  0  0  0  0
   -3.3186    1.2222   -3.0402 H   0  0  0  0  0  0  0  0  0  0  0  0
   -4.2878    4.0870   -2.5413 H   0  0  0  0  0  0  0  0  0  0  0  0
   -2.9459    3.6305   -3.6093 H   0  0  0  0  0  0  0  0  0  0  0  0
   -4.5977    3.1140   -3.9894 H   0  0  0  0  0  0  0  0  0  0  0  0
  1  2  1  0
  2  3  1  0
  3  4  1  0
  4  5  1  0
  5  6  1  0
  6  7  1  0
  7  8  1  0
  8  9  2  0
  8 10  1  0
 10 11  2  0
 11 12  1  0
 12 13  2  0
 13 14  1  0
 14 15  2  0
 15 16  1  0
 16 17  2  0
 16 18  1  0
 18 19  1  0
 19 20  1  0
 20 21  1  0
 21 22  1  0
 22 23  1  0
 23 24  1  0
 15 10  1  0
  1 25  1  0
  1 26  1  0
  1 27  1  0
  2 28  1  0
  2 29  1  0
  3 30  1  0
  3 31  1  0
  4 32  1  0
  4 33  1  0
  5 34  1  0
  5 35  1  0
  6 36  1  0
  6 37  1  0
 11 38  1  0
 12 39  1  0
 13 40  1  0
 14 41  1  0
 19 42  1  0
 19 43  1  0
 20 44  1  0
 20 45  1  0
 21 46  1  0
 21 47  1  0
 22 48  1  0
 22 49  1  0
 23 50  1  0
 23 51  1  0
 24 52  1  0
 24 53  1  0
 24 54  1  0
M  END
>  <Energy>  (4) 
15.671574799130351

>  <Real charge>  (4) 
0

>  <Mult>  (4) 
1

$$$$
mol_558 720
     RDKit          3D

 54 54  0  0  0  0  0  0  0  0999 V2000
   -2.6357    3.0079   -3.4956 C   0  0  0  0  0  0  0  0  0  0  0  0
   -2.5178    1.5404   -3.1167 C   0  0  0  0  0  0  0  0  0  0  0  0
   -3.1926    1.2527   -1.7759 C   0  0  0  0  0  0  0  0  0  0  0  0
   -3.0482   -0.2193   -1.3856 C   0  0  0  0  0  0  0  0  0  0  0  0
   -3.7198   -0.5053   -0.0391 C   0  0  0  0  0  0  0  0  0  0  0  0
   -3.5758   -1.9642    0.3882 C   0  0  0  0  0  0  0  0  0  0  0  0
   -2.1814   -2.2757    0.4941 O   0  0  0  0  0  0  0  0  0  0  0  0
   -1.8894   -3.3747    1.2262 C   0  0  0  0  0  0  0  0  0  0  0  0
   -2.6836   -4.1635    1.7098 O   0  0  0  0  0  0  0  0  0  0  0  0
   -0.4234   -3.5667    1.2518 C   0  0  0  0  0  0  0  0  0  0  0  0
    0.0545   -4.8764    1.0935 C   0  0  0  0  0  0  0  0  0  0  0  0
    1.4283   -5.1248    1.0526 C   0  0  0  0  0  0  0  0  0  0  0  0
    2.3335   -4.0709    1.1739 C   0  0  0  0  0  0  0  0  0  0  0  0
    1.8679   -2.7671    1.3509 C   0  0  0  0  0  0  0  0  0  0  0  0
    0.4880   -2.5136    1.3960 C   0  0  0  0  0  0  0  0  0  0  0  0
    0.0309   -1.1422    1.6815 C   0  0  0  0  0  0  0  0  0  0  0  0
   -0.7310   -0.8503    2.5861 O   0  0  0  0  0  0  0  0  0  0  0  0
    0.5892   -0.3047    0.7749 O   0  0  0  0  0  0  0  0  0  0  0  0
    0.1922    1.0631    0.9225 C   0  0  0  0  0  0  0  0  0  0  0  0
    0.7851    1.8831   -0.2205 C   0  0  0  0  0  0  0  0  0  0  0  0
    2.3096    1.7893   -0.3498 C   0  0  0  0  0  0  0  0  0  0  0  0
    3.0568    2.3145    0.8775 C   0  0  0  0  0  0  0  0  0  0  0  0
    4.5691    2.3039    0.6507 C   0  0  0  0  0  0  0  0  0  0  0  0
    5.3187    2.8189    1.8691 C   0  0  0  0  0  0  0  0  0  0  0  0
   -2.1568    3.6459   -2.7459 H   0  0  0  0  0  0  0  0  0  0  0  0
   -2.1485    3.1910   -4.4584 H   0  0  0  0  0  0  0  0  0  0  0  0
   -3.6849    3.3075   -3.5831 H   0  0  0  0  0  0  0  0  0  0  0  0
   -1.4575    1.2666   -3.0676 H   0  0  0  0  0  0  0  0  0  0  0  0
   -2.9747    0.9274   -3.9022 H   0  0  0  0  0  0  0  0  0  0  0  0
   -4.2557    1.5158   -1.8351 H   0  0  0  0  0  0  0  0  0  0  0  0
   -2.7462    1.8839   -0.9978 H   0  0  0  0  0  0  0  0  0  0  0  0
   -3.4971   -0.8530   -2.1601 H   0  0  0  0  0  0  0  0  0  0  0  0
   -1.9830   -0.4748   -1.3360 H   0  0  0  0  0  0  0  0  0  0  0  0
   -4.7841   -0.2491   -0.0921 H   0  0  0  0  0  0  0  0  0  0  0  0
   -3.2633    0.1352    0.7253 H   0  0  0  0  0  0  0  0  0  0  0  0
   -4.0769   -2.1045    1.3531 H   0  0  0  0  0  0  0  0  0  0  0  0
   -4.0308   -2.6280   -0.3551 H   0  0  0  0  0  0  0  0  0  0  0  0
   -0.6449   -5.7050    0.9925 H   0  0  0  0  0  0  0  0  0  0  0  0
    1.7916   -6.1424    0.9248 H   0  0  0  0  0  0  0  0  0  0  0  0
    3.4031   -4.2672    1.1432 H   0  0  0  0  0  0  0  0  0  0  0  0
    2.5809   -1.9538    1.4698 H   0  0  0  0  0  0  0  0  0  0  0  0
    0.5337    1.4432    1.8915 H   0  0  0  0  0  0  0  0  0  0  0  0
   -0.9008    1.1359    0.8824 H   0  0  0  0  0  0  0  0  0  0  0  0
    0.4863    2.9315   -0.1064 H   0  0  0  0  0  0  0  0  0  0  0  0
    0.3534    1.5264   -1.1639 H   0  0  0  0  0  0  0  0  0  0  0  0
    2.6044    0.7512   -0.5450 H   0  0  0  0  0  0  0  0  0  0  0  0
    2.6122    2.3691   -1.2308 H   0  0  0  0  0  0  0  0  0  0  0  0
    2.7257    3.3357    1.1011 H   0  0  0  0  0  0  0  0  0  0  0  0
    2.8228    1.6969    1.7520 H   0  0  0  0  0  0  0  0  0  0  0  0
    4.8207    2.9268   -0.2155 H   0  0  0  0  0  0  0  0  0  0  0  0
    4.9046    1.2846    0.4263 H   0  0  0  0  0  0  0  0  0  0  0  0
    6.3975    2.8033    1.6850 H   0  0  0  0  0  0  0  0  0  0  0  0
    5.0285    3.8484    2.1019 H   0  0  0  0  0  0  0  0  0  0  0  0
    5.1149    2.1973    2.7468 H   0  0  0  0  0  0  0  0  0  0  0  0
  1  2  1  0
  2  3  1  0
  3  4  1  0
  4  5  1  0
  5  6  1  0
  6  7  1  0
  7  8  1  0
  8  9  2  0
  8 10  1  0
 10 11  2  0
 11 12  1  0
 12 13  2  0
 13 14  1  0
 14 15  2  0
 15 16  1  0
 16 17  2  0
 16 18  1  0
 18 19  1  0
 19 20  1  0
 20 21  1  0
 21 22  1  0
 22 23  1  0
 23 24  1  0
 15 10  1  0
  1 25  1  0
  1 26  1  0
  1 27  1  0
  2 28  1  0
  2 29  1  0
  3 30  1  0
  3 31  1  0
  4 32  1  0
  4 33  1  0
  5 34  1  0
  5 35  1  0
  6 36  1  0
  6 37  1  0
 11 38  1  0
 12 39  1  0
 13 40  1  0
 14 41  1  0
 19 42  1  0
 19 43  1  0
 20 44  1  0
 20 45  1  0
 21 46  1  0
 21 47  1  0
 22 48  1  0
 22 49  1  0
 23 50  1  0
 23 51  1  0
 24 52  1  0
 24 53  1  0
 24 54  1  0
M  END
>  <Energy>  (5) 
15.687368162729419

>  <Real charge>  (5) 
0

>  <Mult>  (5) 
1

$$$$
mol_558 567
     RDKit          3D

 54 54  0  0  0  0  0  0  0  0999 V2000
   -1.1506    3.8868   -0.1861 C   0  0  0  0  0  0  0  0  0  0  0  0
   -1.3733    2.3837   -0.1258 C   0  0  0  0  0  0  0  0  0  0  0  0
   -2.6765    1.9841   -0.8187 C   0  0  0  0  0  0  0  0  0  0  0  0
   -2.8944    0.4691   -0.8697 C   0  0  0  0  0  0  0  0  0  0  0  0
   -3.1400   -0.1530    0.5088 C   0  0  0  0  0  0  0  0  0  0  0  0
   -3.4638   -1.6430    0.4200 C   0  0  0  0  0  0  0  0  0  0  0  0
   -2.3416   -2.3240   -0.1531 O   0  0  0  0  0  0  0  0  0  0  0  0
   -2.3959   -3.6733   -0.0617 C   0  0  0  0  0  0  0  0  0  0  0  0
   -3.3300   -4.3431    0.3452 O   0  0  0  0  0  0  0  0  0  0  0  0
   -1.1749   -4.2482   -0.6621 C   0  0  0  0  0  0  0  0  0  0  0  0
   -1.3402   -5.3396   -1.5282 C   0  0  0  0  0  0  0  0  0  0  0  0
   -0.2352   -5.9003   -2.1715 C   0  0  0  0  0  0  0  0  0  0  0  0
    1.0397   -5.3804   -1.9508 C   0  0  0  0  0  0  0  0  0  0  0  0
    1.2154   -4.3072   -1.0751 C   0  0  0  0  0  0  0  0  0  0  0  0
    0.1083   -3.7409   -0.4233 C   0  0  0  0  0  0  0  0  0  0  0  0
    0.3327   -2.6733    0.5706 C   0  0  0  0  0  0  0  0  0  0  0  0
   -0.1454   -2.6715    1.6915 O   0  0  0  0  0  0  0  0  0  0  0  0
    1.1303   -1.7244    0.0221 O   0  0  0  0  0  0  0  0  0  0  0  0
    1.3763   -0.6047    0.8827 C   0  0  0  0  0  0  0  0  0  0  0  0
    2.2528    0.3871    0.1262 C   0  0  0  0  0  0  0  0  0  0  0  0
    2.5629    1.6235    0.9685 C   0  0  0  0  0  0  0  0  0  0  0  0
    3.4380    2.6133    0.1964 C   0  0  0  0  0  0  0  0  0  0  0  0
    3.8835    3.8115    1.0372 C   0  0  0  0  0  0  0  0  0  0  0  0
    2.7394    4.7263    1.4449 C   0  0  0  0  0  0  0  0  0  0  0  0
   -1.9683    4.4246    0.3042 H   0  0  0  0  0  0  0  0  0  0  0  0
   -1.0830    4.2327   -1.2224 H   0  0  0  0  0  0  0  0  0  0  0  0
   -0.2181    4.1510    0.3212 H   0  0  0  0  0  0  0  0  0  0  0  0
   -0.5282    1.8774   -0.6050 H   0  0  0  0  0  0  0  0  0  0  0  0
   -1.3874    2.0740    0.9244 H   0  0  0  0  0  0  0  0  0  0  0  0
   -3.5268    2.4630   -0.3182 H   0  0  0  0  0  0  0  0  0  0  0  0
   -2.6630    2.3622   -1.8486 H   0  0  0  0  0  0  0  0  0  0  0  0
   -2.0313   -0.0061   -1.3514 H   0  0  0  0  0  0  0  0  0  0  0  0
   -3.7631    0.2691   -1.5092 H   0  0  0  0  0  0  0  0  0  0  0  0
   -3.9671    0.3645    1.0077 H   0  0  0  0  0  0  0  0  0  0  0  0
   -2.2447   -0.0275    1.1278 H   0  0  0  0  0  0  0  0  0  0  0  0
   -4.3458   -1.8072   -0.2092 H   0  0  0  0  0  0  0  0  0  0  0  0
   -3.6610   -2.0270    1.4279 H   0  0  0  0  0  0  0  0  0  0  0  0
   -2.3332   -5.7484   -1.7088 H   0  0  0  0  0  0  0  0  0  0  0  0
   -0.3701   -6.7434   -2.8458 H   0  0  0  0  0  0  0  0  0  0  0  0
    1.8998   -5.8201   -2.4513 H   0  0  0  0  0  0  0  0  0  0  0  0
    2.2178   -3.9268   -0.8897 H   0  0  0  0  0  0  0  0  0  0  0  0
    1.8893   -0.9469    1.7891 H   0  0  0  0  0  0  0  0  0  0  0  0
    0.4238   -0.1353    1.1547 H   0  0  0  0  0  0  0  0  0  0  0  0
    3.1830   -0.1102   -0.1761 H   0  0  0  0  0  0  0  0  0  0  0  0
    1.7523    0.6774   -0.8059 H   0  0  0  0  0  0  0  0  0  0  0  0
    3.0753    1.3196    1.8892 H   0  0  0  0  0  0  0  0  0  0  0  0
    1.6231    2.1037    1.2628 H   0  0  0  0  0  0  0  0  0  0  0  0
    4.3363    2.0942   -0.1605 H   0  0  0  0  0  0  0  0  0  0  0  0
    2.9021    2.9656   -0.6934 H   0  0  0  0  0  0  0  0  0  0  0  0
    4.6046    4.3964    0.4536 H   0  0  0  0  0  0  0  0  0  0  0  0
    4.4100    3.4635    1.9335 H   0  0  0  0  0  0  0  0  0  0  0  0
    2.1889    5.0799    0.5676 H   0  0  0  0  0  0  0  0  0  0  0  0
    2.0381    4.2200    2.1143 H   0  0  0  0  0  0  0  0  0  0  0  0
    3.1293    5.6018    1.9741 H   0  0  0  0  0  0  0  0  0  0  0  0
  1  2  1  0
  2  3  1  0
  3  4  1  0
  4  5  1  0
  5  6  1  0
  6  7  1  0
  7  8  1  0
  8  9  2  0
  8 10  1  0
 10 11  2  0
 11 12  1  0
 12 13  2  0
 13 14  1  0
 14 15  2  0
 15 16  1  0
 16 17  2  0
 16 18  1  0
 18 19  1  0
 19 20  1  0
 20 21  1  0
 21 22  1  0
 22 23  1  0
 23 24  1  0
 15 10  1  0
  1 25  1  0
  1 26  1  0
  1 27  1  0
  2 28  1  0
  2 29  1  0
  3 30  1  0
  3 31  1  0
  4 32  1  0
  4 33  1  0
  5 34  1  0
  5 35  1  0
  6 36  1  0
  6 37  1  0
 11 38  1  0
 12 39  1  0
 13 40  1  0
 14 41  1  0
 19 42  1  0
 19 43  1  0
 20 44  1  0
 20 45  1  0
 21 46  1  0
 21 47  1  0
 22 48  1  0
 22 49  1  0
 23 50  1  0
 23 51  1  0
 24 52  1  0
 24 53  1  0
 24 54  1  0
M  END
>  <Energy>  (6) 
15.791800410858473

>  <Real charge>  (6) 
0

>  <Mult>  (6) 
1

$$$$
mol_558 460
     RDKit          3D

 54 54  0  0  0  0  0  0  0  0999 V2000
    1.1382   -3.3761   -1.5605 C   0  0  0  0  0  0  0  0  0  0  0  0
    1.4834   -1.9364   -1.2130 C   0  0  0  0  0  0  0  0  0  0  0  0
    2.9934   -1.7333   -1.0914 C   0  0  0  0  0  0  0  0  0  0  0  0
    3.3796   -0.3313   -0.6100 C   0  0  0  0  0  0  0  0  0  0  0  0
    3.0228    0.7759   -1.6073 C   0  0  0  0  0  0  0  0  0  0  0  0
    3.5615    2.1378   -1.1694 C   0  0  0  0  0  0  0  0  0  0  0  0
    3.0375    2.5079    0.1146 O   0  0  0  0  0  0  0  0  0  0  0  0
    1.8404    3.1442    0.0984 C   0  0  0  0  0  0  0  0  0  0  0  0
    1.1917    3.4652   -0.8816 O   0  0  0  0  0  0  0  0  0  0  0  0
    1.4128    3.3864    1.4914 C   0  0  0  0  0  0  0  0  0  0  0  0
    2.3325    3.9310    2.4028 C   0  0  0  0  0  0  0  0  0  0  0  0
    1.9307    4.2506    3.7014 C   0  0  0  0  0  0  0  0  0  0  0  0
    0.6100    4.0407    4.0949 C   0  0  0  0  0  0  0  0  0  0  0  0
   -0.3090    3.4983    3.1951 C   0  0  0  0  0  0  0  0  0  0  0  0
    0.0915    3.1561    1.8941 C   0  0  0  0  0  0  0  0  0  0  0  0
   -0.9280    2.5421    1.0197 C   0  0  0  0  0  0  0  0  0  0  0  0
   -2.0863    2.9208    0.9715 O   0  0  0  0  0  0  0  0  0  0  0  0
   -0.3971    1.4562    0.4097 O   0  0  0  0  0  0  0  0  0  0  0  0
   -1.2720    0.7611   -0.4906 C   0  0  0  0  0  0  0  0  0  0  0  0
   -1.9657   -0.3765    0.2499 C   0  0  0  0  0  0  0  0  0  0  0  0
   -2.8060   -1.2311   -0.6960 C   0  0  0  0  0  0  0  0  0  0  0  0
   -3.4789   -2.3857    0.0473 C   0  0  0  0  0  0  0  0  0  0  0  0
   -4.3137   -3.2456   -0.9012 C   0  0  0  0  0  0  0  0  0  0  0  0
   -4.9835   -4.3958   -0.1664 C   0  0  0  0  0  0  0  0  0  0  0  0
    0.0533   -3.4953   -1.6443 H   0  0  0  0  0  0  0  0  0  0  0  0
    1.5876   -3.6674   -2.5152 H   0  0  0  0  0  0  0  0  0  0  0  0
    1.4962   -4.0634   -0.7874 H   0  0  0  0  0  0  0  0  0  0  0  0
    1.0747   -1.2827   -1.9904 H   0  0  0  0  0  0  0  0  0  0  0  0
    0.9964   -1.6701   -0.2685 H   0  0  0  0  0  0  0  0  0  0  0  0
    3.4743   -1.9379   -2.0557 H   0  0  0  0  0  0  0  0  0  0  0  0
    3.3966   -2.4621   -0.3771 H   0  0  0  0  0  0  0  0  0  0  0  0
    4.4624   -0.3177   -0.4342 H   0  0  0  0  0  0  0  0  0  0  0  0
    2.9003   -0.1347    0.3567 H   0  0  0  0  0  0  0  0  0  0  0  0
    1.9339    0.8369   -1.7060 H   0  0  0  0  0  0  0  0  0  0  0  0
    3.4317    0.5326   -2.5945 H   0  0  0  0  0  0  0  0  0  0  0  0
    3.3412    2.9058   -1.9204 H   0  0  0  0  0  0  0  0  0  0  0  0
    4.6518    2.0970   -1.0711 H   0  0  0  0  0  0  0  0  0  0  0  0
    3.3597    4.1247    2.1002 H   0  0  0  0  0  0  0  0  0  0  0  0
    2.6455    4.6760    4.4025 H   0  0  0  0  0  0  0  0  0  0  0  0
    0.2943    4.2996    5.1033 H   0  0  0  0  0  0  0  0  0  0  0  0
   -1.3385    3.3349    3.5103 H   0  0  0  0  0  0  0  0  0  0  0  0
   -0.6461    0.3641   -1.2959 H   0  0  0  0  0  0  0  0  0  0  0  0
   -1.9951    1.4409   -0.9571 H   0  0  0  0  0  0  0  0  0  0  0  0
   -1.2128   -0.9958    0.7527 H   0  0  0  0  0  0  0  0  0  0  0  0
   -2.5951    0.0355    1.0481 H   0  0  0  0  0  0  0  0  0  0  0  0
   -3.5692   -0.6063   -1.1756 H   0  0  0  0  0  0  0  0  0  0  0  0
   -2.1679   -1.6316   -1.4932 H   0  0  0  0  0  0  0  0  0  0  0  0
   -4.1199   -1.9868    0.8429 H   0  0  0  0  0  0  0  0  0  0  0  0
   -2.7144   -3.0073    0.5293 H   0  0  0  0  0  0  0  0  0  0  0  0
   -3.6760   -3.6496   -1.6961 H   0  0  0  0  0  0  0  0  0  0  0  0
   -5.0824   -2.6302   -1.3829 H   0  0  0  0  0  0  0  0  0  0  0  0
   -5.5750   -4.9976   -0.8634 H   0  0  0  0  0  0  0  0  0  0  0  0
   -5.6537   -4.0246    0.6155 H   0  0  0  0  0  0  0  0  0  0  0  0
   -4.2396   -5.0495    0.3001 H   0  0  0  0  0  0  0  0  0  0  0  0
  1  2  1  0
  2  3  1  0
  3  4  1  0
  4  5  1  0
  5  6  1  0
  6  7  1  0
  7  8  1  0
  8  9  2  0
  8 10  1  0
 10 11  2  0
 11 12  1  0
 12 13  2  0
 13 14  1  0
 14 15  2  0
 15 16  1  0
 16 17  2  0
 16 18  1  0
 18 19  1  0
 19 20  1  0
 20 21  1  0
 21 22  1  0
 22 23  1  0
 23 24  1  0
 15 10  1  0
  1 25  1  0
  1 26  1  0
  1 27  1  0
  2 28  1  0
  2 29  1  0
  3 30  1  0
  3 31  1  0
  4 32  1  0
  4 33  1  0
  5 34  1  0
  5 35  1  0
  6 36  1  0
  6 37  1  0
 11 38  1  0
 12 39  1  0
 13 40  1  0
 14 41  1  0
 19 42  1  0
 19 43  1  0
 20 44  1  0
 20 45  1  0
 21 46  1  0
 21 47  1  0
 22 48  1  0
 22 49  1  0
 23 50  1  0
 23 51  1  0
 24 52  1  0
 24 53  1  0
 24 54  1  0
M  END
>  <Energy>  (7) 
15.918895936811635

>  <Real charge>  (7) 
0

>  <Mult>  (7) 
1

$$$$
