mol_152 97
     RDKit          3D

 14 14  0  0  0  0  0  0  0  0999 V2000
   -2.6092   -0.6607    0.1430 O   0  0  0  0  0  0  0  0  0  0  0  0
   -1.3163   -0.2373    0.0444 C   0  0  0  0  0  0  0  0  0  0  0  0
   -1.0940    1.0833   -0.3326 C   0  0  0  0  0  0  0  0  0  0  0  0
    0.2130    1.5596   -0.4462 C   0  0  0  0  0  0  0  0  0  0  0  0
    1.2906    0.7121   -0.1819 C   0  0  0  0  0  0  0  0  0  0  0  0
    1.0469   -0.6071    0.1943 C   0  0  0  0  0  0  0  0  0  0  0  0
    2.0709   -1.4683    0.4616 O   0  0  0  0  0  0  0  0  0  0  0  0
   -0.2518   -1.0921    0.3106 C   0  0  0  0  0  0  0  0  0  0  0  0
   -2.6053   -1.5942    0.4125 H   0  0  0  0  0  0  0  0  0  0  0  0
   -1.9362    1.7384   -0.5370 H   0  0  0  0  0  0  0  0  0  0  0  0
    0.3887    2.5909   -0.7406 H   0  0  0  0  0  0  0  0  0  0  0  0
    2.3020    1.0949   -0.2739 H   0  0  0  0  0  0  0  0  0  0  0  0
    2.9112   -0.9961    0.3406 H   0  0  0  0  0  0  0  0  0  0  0  0
   -0.4106   -2.1235    0.6053 H   0  0  0  0  0  0  0  0  0  0  0  0
  1  2  1  0
  2  3  2  0
  3  4  1  0
  4  5  2  0
  5  6  1  0
  6  7  1  0
  6  8  2  0
  8  2  1  0
  1  9  1  0
  3 10  1  0
  4 11  1  0
  5 12  1  0
  7 13  1  0
  8 14  1  0
M  END
>  <Energy>  (1) 
-4.853926205320322

>  <Real charge>  (1) 
0

>  <Mult>  (1) 
1

$$$$
mol_152 125
     RDKit          3D

 14 14  0  0  0  0  0  0  0  0999 V2000
    2.3936   -0.9929   -0.4966 O   0  0  0  0  0  0  0  0  0  0  0  0
    1.1903   -0.3554   -0.4096 C   0  0  0  0  0  0  0  0  0  0  0  0
    1.1735    1.0193   -0.6269 C   0  0  0  0  0  0  0  0  0  0  0  0
   -0.0318    1.7169   -0.5492 C   0  0  0  0  0  0  0  0  0  0  0  0
   -1.2116    1.0335   -0.2545 C   0  0  0  0  0  0  0  0  0  0  0  0
   -1.1774   -0.3412   -0.0398 C   0  0  0  0  0  0  0  0  0  0  0  0
   -2.3573   -0.9644    0.2453 O   0  0  0  0  0  0  0  0  0  0  0  0
    0.0195   -1.0499   -0.1145 C   0  0  0  0  0  0  0  0  0  0  0  0
    2.2616   -1.9391   -0.3244 H   0  0  0  0  0  0  0  0  0  0  0  0
    2.0962    1.5449   -0.8561 H   0  0  0  0  0  0  0  0  0  0  0  0
   -0.0518    2.7901   -0.7179 H   0  0  0  0  0  0  0  0  0  0  0  0
   -2.1540    1.5704   -0.1924 H   0  0  0  0  0  0  0  0  0  0  0  0
   -2.1902   -1.9124    0.3708 H   0  0  0  0  0  0  0  0  0  0  0  0
    0.0393   -2.1198    0.0537 H   0  0  0  0  0  0  0  0  0  0  0  0
  1  2  1  0
  2  3  2  0
  3  4  1  0
  4  5  2  0
  5  6  1  0
  6  7  1  0
  6  8  2  0
  8  2  1  0
  1  9  1  0
  3 10  1  0
  4 11  1  0
  5 12  1  0
  7 13  1  0
  8 14  1  0
M  END
>  <Energy>  (2) 
-3.9363844686656098

>  <Real charge>  (2) 
0

>  <Mult>  (2) 
1

$$$$
