mol_662 26
     RDKit          3D

 22 23  0  0  0  0  0  0  0  0999 V2000
    5.2531   -0.6020    0.0875 Cl  0  0  0  0  0  0  0  0  0  0  0  0
    3.5442   -0.4079    0.0593 C   0  0  0  0  0  0  0  0  0  0  0  0
    2.9297    0.4290    0.9874 C   0  0  0  0  0  0  0  0  0  0  0  0
    1.5418    0.5895    0.9680 C   0  0  0  0  0  0  0  0  0  0  0  0
    0.7519   -0.0860    0.0191 C   0  0  0  0  0  0  0  0  0  0  0  0
    1.3996   -0.9274   -0.9093 C   0  0  0  0  0  0  0  0  0  0  0  0
    0.5053   -1.7959   -2.1104 Cl  0  0  0  0  0  0  0  0  0  0  0  0
    2.7872   -1.0878   -0.8899 C   0  0  0  0  0  0  0  0  0  0  0  0
   -0.7170    0.1044    0.0237 C   0  0  0  0  0  0  0  0  0  0  0  0
   -1.5563   -0.7434    0.7846 C   0  0  0  0  0  0  0  0  0  0  0  0
   -0.8341   -2.0063    1.7496 Cl  0  0  0  0  0  0  0  0  0  0  0  0
   -2.9550   -0.5784    0.7735 C   0  0  0  0  0  0  0  0  0  0  0  0
   -3.9644   -1.6356    1.7219 Cl  0  0  0  0  0  0  0  0  0  0  0  0
   -3.5341    0.4422   -0.0011 C   0  0  0  0  0  0  0  0  0  0  0  0
   -5.2646    0.6504   -0.0153 Cl  0  0  0  0  0  0  0  0  0  0  0  0
   -2.7166    1.2976   -0.7605 C   0  0  0  0  0  0  0  0  0  0  0  0
   -3.4302    2.5683   -1.7155 Cl  0  0  0  0  0  0  0  0  0  0  0  0
   -1.3185    1.1283   -0.7458 C   0  0  0  0  0  0  0  0  0  0  0  0
   -0.3006    2.1924   -1.6836 Cl  0  0  0  0  0  0  0  0  0  0  0  0
    3.5238    0.9592    1.7282 H   0  0  0  0  0  0  0  0  0  0  0  0
    1.0804    1.2483    1.7020 H   0  0  0  0  0  0  0  0  0  0  0  0
    3.2743   -1.7392   -1.6108 H   0  0  0  0  0  0  0  0  0  0  0  0
  1  2  1  0
  2  3  2  0
  3  4  1  0
  4  5  2  0
  5  6  1  0
  6  7  1  0
  6  8  2  0
  5  9  1  0
  9 10  2  0
 10 11  1  0
 10 12  1  0
 12 13  1  0
 12 14  2  0
 14 15  1  0
 14 16  1  0
 16 17  1  0
 16 18  2  0
 18 19  1  0
  8  2  1  0
 18  9  1  0
  3 20  1  0
  4 21  1  0
  8 22  1  0
M  END
>  <Energy>  (1) 
52.51863439341188

>  <Real charge>  (1) 
0

>  <Mult>  (1) 
1

$$$$
