mol_821 72
     RDKit          3D

 17 16  0  0  0  0  0  0  0  0999 V2000
   -2.5720   -0.0472   -0.2630 C   0  0  0  0  0  0  0  0  0  0  0  0
   -1.2316   -0.6583    0.1132 C   0  0  0  0  0  0  0  0  0  0  0  0
   -0.0782    0.3039   -0.1699 C   0  0  0  0  0  0  0  0  0  0  0  0
    1.2683   -0.3140    0.2097 C   0  0  0  0  0  0  0  0  0  0  0  0
    2.4093    0.6480   -0.0745 C   0  0  0  0  0  0  0  0  0  0  0  0
    4.1031   -0.1736    0.4211 Br  0  0  0  0  0  0  0  0  0  0  0  0
   -2.6051    0.1998   -1.3290 H   0  0  0  0  0  0  0  0  0  0  0  0
   -3.3824   -0.7521   -0.0524 H   0  0  0  0  0  0  0  0  0  0  0  0
   -2.7603    0.8675    0.3080 H   0  0  0  0  0  0  0  0  0  0  0  0
   -1.0889   -1.5872   -0.4511 H   0  0  0  0  0  0  0  0  0  0  0  0
   -1.2432   -0.9232    1.1769 H   0  0  0  0  0  0  0  0  0  0  0  0
   -0.0737    0.5689   -1.2343 H   0  0  0  0  0  0  0  0  0  0  0  0
   -0.2280    1.2329    0.3937 H   0  0  0  0  0  0  0  0  0  0  0  0
    1.2612   -0.5833    1.2734 H   0  0  0  0  0  0  0  0  0  0  0  0
    1.4151   -1.2458   -0.3508 H   0  0  0  0  0  0  0  0  0  0  0  0
    2.3252    1.5679    0.5107 H   0  0  0  0  0  0  0  0  0  0  0  0
    2.4813    0.8958   -1.1371 H   0  0  0  0  0  0  0  0  0  0  0  0
  1  2  1  0
  2  3  1  0
  3  4  1  0
  4  5  1  0
  5  6  1  0
  1  7  1  0
  1  8  1  0
  1  9  1  0
  2 10  1  0
  2 11  1  0
  3 12  1  0
  3 13  1  0
  4 14  1  0
  4 15  1  0
  5 16  1  0
  5 17  1  0
M  END
>  <Energy>  (1) 
-2.560792069871554

>  <Real charge>  (1) 
0

>  <Mult>  (1) 
1

$$$$
mol_821 151
     RDKit          3D

 17 16  0  0  0  0  0  0  0  0999 V2000
   -2.5049    0.4863    0.0257 C   0  0  0  0  0  0  0  0  0  0  0  0
   -1.2843   -0.3655    0.3361 C   0  0  0  0  0  0  0  0  0  0  0  0
   -0.0115    0.2429   -0.2544 C   0  0  0  0  0  0  0  0  0  0  0  0
    1.2138   -0.6219    0.0607 C   0  0  0  0  0  0  0  0  0  0  0  0
    2.4942   -0.0915   -0.5655 C   0  0  0  0  0  0  0  0  0  0  0  0
    3.1401    1.4859    0.3744 Br  0  0  0  0  0  0  0  0  0  0  0  0
   -2.3981    1.4922    0.4440 H   0  0  0  0  0  0  0  0  0  0  0  0
   -2.6553    0.5773   -1.0548 H   0  0  0  0  0  0  0  0  0  0  0  0
   -3.4030    0.0329    0.4566 H   0  0  0  0  0  0  0  0  0  0  0  0
   -1.4377   -1.3733   -0.0671 H   0  0  0  0  0  0  0  0  0  0  0  0
   -1.1807   -0.4627    1.4230 H   0  0  0  0  0  0  0  0  0  0  0  0
    0.1234    1.2537    0.1465 H   0  0  0  0  0  0  0  0  0  0  0  0
   -0.1223    0.3388   -1.3415 H   0  0  0  0  0  0  0  0  0  0  0  0
    1.3295   -0.7222    1.1468 H   0  0  0  0  0  0  0  0  0  0  0  0
    1.0359   -1.6306   -0.3328 H   0  0  0  0  0  0  0  0  0  0  0  0
    2.3629    0.1867   -1.6146 H   0  0  0  0  0  0  0  0  0  0  0  0
    3.2980   -0.8291   -0.4881 H   0  0  0  0  0  0  0  0  0  0  0  0
  1  2  1  0
  2  3  1  0
  3  4  1  0
  4  5  1  0
  5  6  1  0
  1  7  1  0
  1  8  1  0
  1  9  1  0
  2 10  1  0
  2 11  1  0
  3 12  1  0
  3 13  1  0
  4 14  1  0
  4 15  1  0
  5 16  1  0
  5 17  1  0
M  END
>  <Energy>  (2) 
-2.15323313923032

>  <Real charge>  (2) 
0

>  <Mult>  (2) 
1

$$$$
mol_821 132
     RDKit          3D

 17 16  0  0  0  0  0  0  0  0999 V2000
   -2.4562    0.1172    0.2889 C   0  0  0  0  0  0  0  0  0  0  0  0
   -1.0202    0.1180   -0.2129 C   0  0  0  0  0  0  0  0  0  0  0  0
   -0.0739   -0.5195    0.8053 C   0  0  0  0  0  0  0  0  0  0  0  0
    1.3673   -0.6379    0.3022 C   0  0  0  0  0  0  0  0  0  0  0  0
    2.0334    0.7105    0.0827 C   0  0  0  0  0  0  0  0  0  0  0  0
    3.8962    0.4466   -0.4259 Br  0  0  0  0  0  0  0  0  0  0  0  0
   -3.1165    0.5797   -0.4515 H   0  0  0  0  0  0  0  0  0  0  0  0
   -2.8093   -0.9034    0.4677 H   0  0  0  0  0  0  0  0  0  0  0  0
   -2.5454    0.6808    1.2231 H   0  0  0  0  0  0  0  0  0  0  0  0
   -0.9709   -0.4292   -1.1613 H   0  0  0  0  0  0  0  0  0  0  0  0
   -0.7210    1.1517   -0.4161 H   0  0  0  0  0  0  0  0  0  0  0  0
   -0.4353   -1.5263    1.0491 H   0  0  0  0  0  0  0  0  0  0  0  0
   -0.0911    0.0563    1.7388 H   0  0  0  0  0  0  0  0  0  0  0  0
    1.3850   -1.2234   -0.6256 H   0  0  0  0  0  0  0  0  0  0  0  0
    1.9396   -1.2138    1.0408 H   0  0  0  0  0  0  0  0  0  0  0  0
    1.5759    1.2761   -0.7324 H   0  0  0  0  0  0  0  0  0  0  0  0
    2.0425    1.3168    0.9925 H   0  0  0  0  0  0  0  0  0  0  0  0
  1  2  1  0
  2  3  1  0
  3  4  1  0
  4  5  1  0
  5  6  1  0
  1  7  1  0
  1  8  1  0
  1  9  1  0
  2 10  1  0
  2 11  1  0
  3 12  1  0
  3 13  1  0
  4 14  1  0
  4 15  1  0
  5 16  1  0
  5 17  1  0
M  END
>  <Energy>  (3) 
-1.7876519967678397

>  <Real charge>  (3) 
0

>  <Mult>  (3) 
1

$$$$
mol_821 116
     RDKit          3D

 17 16  0  0  0  0  0  0  0  0999 V2000
   -2.1719   -0.0496   -0.5360 C   0  0  0  0  0  0  0  0  0  0  0  0
   -1.3333   -0.6126    0.6010 C   0  0  0  0  0  0  0  0  0  0  0  0
    0.1528   -0.7403    0.2593 C   0  0  0  0  0  0  0  0  0  0  0  0
    0.8415    0.6071    0.0328 C   0  0  0  0  0  0  0  0  0  0  0  0
    2.3328    0.4226   -0.1961 C   0  0  0  0  0  0  0  0  0  0  0  0
    3.1752    2.1545   -0.4816 Br  0  0  0  0  0  0  0  0  0  0  0  0
   -2.0401   -0.6369   -1.4501 H   0  0  0  0  0  0  0  0  0  0  0  0
   -3.2330   -0.0746   -0.2675 H   0  0  0  0  0  0  0  0  0  0  0  0
   -1.9101    0.9905   -0.7511 H   0  0  0  0  0  0  0  0  0  0  0  0
   -1.7171   -1.6076    0.8564 H   0  0  0  0  0  0  0  0  0  0  0  0
   -1.4592    0.0135    1.4919 H   0  0  0  0  0  0  0  0  0  0  0  0
    0.2727   -1.3714   -0.6298 H   0  0  0  0  0  0  0  0  0  0  0  0
    0.6502   -1.2623    1.0864 H   0  0  0  0  0  0  0  0  0  0  0  0
    0.6735    1.2558    0.9016 H   0  0  0  0  0  0  0  0  0  0  0  0
    0.3985    1.1137   -0.8325 H   0  0  0  0  0  0  0  0  0  0  0  0
    2.5393   -0.1762   -1.0874 H   0  0  0  0  0  0  0  0  0  0  0  0
    2.8282   -0.0262    0.6692 H   0  0  0  0  0  0  0  0  0  0  0  0
  1  2  1  0
  2  3  1  0
  3  4  1  0
  4  5  1  0
  5  6  1  0
  1  7  1  0
  1  8  1  0
  1  9  1  0
  2 10  1  0
  2 11  1  0
  3 12  1  0
  3 13  1  0
  4 14  1  0
  4 15  1  0
  5 16  1  0
  5 17  1  0
M  END
>  <Energy>  (4) 
-1.738036927304581

>  <Real charge>  (4) 
0

>  <Mult>  (4) 
1

$$$$
