mol_109 2
     RDKit          3D

 14 13  0  0  0  0  0  0  0  0999 V2000
   -0.8762    1.1416    0.1534 C   0  0  0  0  0  0  0  0  0  0  0  0
    0.1443    0.1442   -0.3903 C   0  0  0  0  0  0  0  0  0  0  0  0
    1.3162   -0.0062    0.5771 C   0  0  0  0  0  0  0  0  0  0  0  0
   -0.5136   -1.2089   -0.6513 C   0  0  0  0  0  0  0  0  0  0  0  0
   -1.2947    0.8036    1.1076 H   0  0  0  0  0  0  0  0  0  0  0  0
   -0.4143    2.1214    0.3143 H   0  0  0  0  0  0  0  0  0  0  0  0
   -1.7039    1.2738   -0.5514 H   0  0  0  0  0  0  0  0  0  0  0  0
    0.5300    0.5295   -1.3421 H   0  0  0  0  0  0  0  0  0  0  0  0
    2.0641   -0.6989    0.1769 H   0  0  0  0  0  0  0  0  0  0  0  0
    0.9848   -0.3898    1.5482 H   0  0  0  0  0  0  0  0  0  0  0  0
    1.8086    0.9577    0.7439 H   0  0  0  0  0  0  0  0  0  0  0  0
   -1.3363   -1.1094   -1.3672 H   0  0  0  0  0  0  0  0  0  0  0  0
    0.2088   -1.9183   -1.0686 H   0  0  0  0  0  0  0  0  0  0  0  0
   -0.9177   -1.6402    0.2710 H   0  0  0  0  0  0  0  0  0  0  0  0
  1  2  1  0
  2  3  1  0
  2  4  1  0
  1  5  1  0
  1  6  1  0
  1  7  1  0
  2  8  1  0
  3  9  1  0
  3 10  1  0
  3 11  1  0
  4 12  1  0
  4 13  1  0
  4 14  1  0
M  END
>  <Energy>  (1) 
-0.4775157715899446

>  <Real charge>  (1) 
0

>  <Mult>  (1) 
1

$$$$
