mol_759 48
     RDKit          3D

 20 19  0  0  0  0  0  0  0  0999 V2000
   -2.3342   -1.8135   -0.2114 C   0  0  0  0  0  0  0  0  0  0  0  0
   -1.0859   -1.2075    0.0547 O   0  0  0  0  0  0  0  0  0  0  0  0
   -0.2368   -0.6712   -1.2090 P   0  0  0  0  0  5  0  0  0  0  0  0
   -0.1449   -1.7303   -2.2737 O   0  0  0  0  0  0  0  0  0  0  0  0
    1.3126   -0.3876   -0.6268 N   0  0  0  0  0  0  0  0  0  0  0  0
    1.5758    0.3029    0.5126 C   0  0  0  0  0  0  0  0  0  0  0  0
    3.0246    0.3019    0.9204 C   0  0  0  0  0  0  0  0  0  0  0  0
    0.7259    0.8939    1.1680 O   0  0  0  0  0  0  0  0  0  0  0  0
   -1.0796    1.0498   -2.0270 S   0  0  0  0  0  0  0  0  0  0  0  0
   -1.4277    2.1311   -0.6329 C   0  0  0  0  0  0  0  0  0  0  0  0
   -2.1901   -2.7413   -0.7713 H   0  0  0  0  0  0  0  0  0  0  0  0
   -2.9791   -1.1344   -0.7748 H   0  0  0  0  0  0  0  0  0  0  0  0
   -2.8182   -2.0489    0.7399 H   0  0  0  0  0  0  0  0  0  0  0  0
    2.0226   -0.9553   -1.0589 H   0  0  0  0  0  0  0  0  0  0  0  0
    3.6559   -0.1995    0.1816 H   0  0  0  0  0  0  0  0  0  0  0  0
    3.1255   -0.2167    1.8775 H   0  0  0  0  0  0  0  0  0  0  0  0
    3.3672    1.3354    1.0216 H   0  0  0  0  0  0  0  0  0  0  0  0
   -1.8892    1.5697    0.1828 H   0  0  0  0  0  0  0  0  0  0  0  0
   -2.1169    2.9190   -0.9481 H   0  0  0  0  0  0  0  0  0  0  0  0
   -0.5076    2.6025   -0.2815 H   0  0  0  0  0  0  0  0  0  0  0  0
  1  2  1  0
  2  3  1  0
  3  4  2  0
  3  5  1  0
  5  6  1  0
  6  7  1  0
  6  8  2  0
  3  9  1  0
  9 10  1  0
  1 11  1  0
  1 12  1  0
  1 13  1  0
  5 14  1  0
  7 15  1  0
  7 16  1  0
  7 17  1  0
 10 18  1  0
 10 19  1  0
 10 20  1  0
M  END
>  <Energy>  (1) 
-153.06532629576026

>  <Real charge>  (1) 
0

>  <Mult>  (1) 
1

$$$$
mol_759 246
     RDKit          3D

 20 19  0  0  0  0  0  0  0  0999 V2000
   -1.9587    2.6240   -0.2055 C   0  0  0  0  0  0  0  0  0  0  0  0
   -0.6781    2.0487   -0.3833 O   0  0  0  0  0  0  0  0  0  0  0  0
   -0.5063    0.4902    0.0383 P   0  0  0  0  0  5  0  0  0  0  0  0
   -1.1305    0.2463    1.3807 O   0  0  0  0  0  0  0  0  0  0  0  0
    1.1693    0.3769    0.0470 N   0  0  0  0  0  0  0  0  0  0  0  0
    1.8221   -0.7703    0.3701 C   0  0  0  0  0  0  0  0  0  0  0  0
    3.3158   -0.6253    0.4837 C   0  0  0  0  0  0  0  0  0  0  0  0
    1.2666   -1.8468    0.5508 O   0  0  0  0  0  0  0  0  0  0  0  0
   -1.3599   -0.6801   -1.4596 S   0  0  0  0  0  0  0  0  0  0  0  0
   -1.8647   -2.1856   -0.6087 C   0  0  0  0  0  0  0  0  0  0  0  0
   -1.9552    3.6247   -0.6448 H   0  0  0  0  0  0  0  0  0  0  0  0
   -2.7254    2.0244   -0.7026 H   0  0  0  0  0  0  0  0  0  0  0  0
   -2.1850    2.7091    0.8606 H   0  0  0  0  0  0  0  0  0  0  0  0
    1.6548    1.2576    0.0469 H   0  0  0  0  0  0  0  0  0  0  0  0
    3.6140   -0.8046    1.5201 H   0  0  0  0  0  0  0  0  0  0  0  0
    3.6518    0.3727    0.1889 H   0  0  0  0  0  0  0  0  0  0  0  0
    3.7961   -1.3574   -0.1714 H   0  0  0  0  0  0  0  0  0  0  0  0
   -2.3856   -2.8425   -1.3102 H   0  0  0  0  0  0  0  0  0  0  0  0
   -0.9977   -2.7176   -0.2141 H   0  0  0  0  0  0  0  0  0  0  0  0
   -2.5433   -1.9445    0.2132 H   0  0  0  0  0  0  0  0  0  0  0  0
  1  2  1  0
  2  3  1  0
  3  4  2  0
  3  5  1  0
  5  6  1  0
  6  7  1  0
  6  8  2  0
  3  9  1  0
  9 10  1  0
  1 11  1  0
  1 12  1  0
  1 13  1  0
  5 14  1  0
  7 15  1  0
  7 16  1  0
  7 17  1  0
 10 18  1  0
 10 19  1  0
 10 20  1  0
M  END
>  <Energy>  (2) 
-152.92340314533536

>  <Real charge>  (2) 
0

>  <Mult>  (2) 
1

$$$$
mol_759 376
     RDKit          3D

 20 19  0  0  0  0  0  0  0  0999 V2000
   -2.7757   -1.8286    0.1319 C   0  0  0  0  0  0  0  0  0  0  0  0
   -1.3729   -1.7516   -0.0390 O   0  0  0  0  0  0  0  0  0  0  0  0
   -0.7214   -0.2661   -0.1137 P   0  0  0  0  0  5  0  0  0  0  0  0
   -1.2814    0.5980    0.9771 O   0  0  0  0  0  0  0  0  0  0  0  0
    0.8998   -0.6542    0.0946 N   0  0  0  0  0  0  0  0  0  0  0  0
    1.8655    0.2937    0.2207 C   0  0  0  0  0  0  0  0  0  0  0  0
    3.2212   -0.2450    0.5912 C   0  0  0  0  0  0  0  0  0  0  0  0
    1.6778    1.4909    0.0430 O   0  0  0  0  0  0  0  0  0  0  0  0
   -1.1010    0.5044   -2.0122 S   0  0  0  0  0  0  0  0  0  0  0  0
   -0.7390    2.2629   -1.8730 C   0  0  0  0  0  0  0  0  0  0  0  0
   -3.0503   -1.4730    1.1284 H   0  0  0  0  0  0  0  0  0  0  0  0
   -3.0816   -2.8734    0.0351 H   0  0  0  0  0  0  0  0  0  0  0  0
   -3.2920   -1.2390   -0.6298 H   0  0  0  0  0  0  0  0  0  0  0  0
    1.0705   -1.5962    0.4029 H   0  0  0  0  0  0  0  0  0  0  0  0
    3.2357   -1.3384    0.6030 H   0  0  0  0  0  0  0  0  0  0  0  0
    3.4910    0.1209    1.5854 H   0  0  0  0  0  0  0  0  0  0  0  0
    3.9550    0.1007   -0.1421 H   0  0  0  0  0  0  0  0  0  0  0  0
    0.3391    2.4321   -1.8875 H   0  0  0  0  0  0  0  0  0  0  0  0
   -1.1606    2.6707   -0.9513 H   0  0  0  0  0  0  0  0  0  0  0  0
   -1.1797    2.7914   -2.7226 H   0  0  0  0  0  0  0  0  0  0  0  0
  1  2  1  0
  2  3  1  0
  3  4  2  0
  3  5  1  0
  5  6  1  0
  6  7  1  0
  6  8  2  0
  3  9  1  0
  9 10  1  0
  1 11  1  0
  1 12  1  0
  1 13  1  0
  5 14  1  0
  7 15  1  0
  7 16  1  0
  7 17  1  0
 10 18  1  0
 10 19  1  0
 10 20  1  0
M  END
>  <Energy>  (3) 
-152.9223949195356

>  <Real charge>  (3) 
0

>  <Mult>  (3) 
1

$$$$
mol_759 354
     RDKit          3D

 20 19  0  0  0  0  0  0  0  0999 V2000
   -1.0364    1.9516   -0.0522 C   0  0  0  0  0  0  0  0  0  0  0  0
   -1.0831    0.9498   -1.0450 O   0  0  0  0  0  0  0  0  0  0  0  0
   -0.4277   -0.5003   -0.7733 P   0  0  0  0  0  5  0  0  0  0  0  0
   -0.6448   -1.3781   -1.9772 O   0  0  0  0  0  0  0  0  0  0  0  0
    1.2284   -0.2673   -0.6235 N   0  0  0  0  0  0  0  0  0  0  0  0
    1.8429    0.2258    0.4818 C   0  0  0  0  0  0  0  0  0  0  0  0
    3.3466    0.2009    0.4246 C   0  0  0  0  0  0  0  0  0  0  0  0
    1.2451    0.6797    1.4502 O   0  0  0  0  0  0  0  0  0  0  0  0
   -1.2813   -1.4516    0.8723 S   0  0  0  0  0  0  0  0  0  0  0  0
   -2.9868   -1.7067    0.3551 C   0  0  0  0  0  0  0  0  0  0  0  0
   -0.0555    2.4323   -0.0559 H   0  0  0  0  0  0  0  0  0  0  0  0
   -1.7888    2.7082   -0.2904 H   0  0  0  0  0  0  0  0  0  0  0  0
   -1.2597    1.5466    0.9369 H   0  0  0  0  0  0  0  0  0  0  0  0
    1.7632   -0.7027   -1.3572 H   0  0  0  0  0  0  0  0  0  0  0  0
    3.7216    1.2274    0.4562 H   0  0  0  0  0  0  0  0  0  0  0  0
    3.7269   -0.3586    1.2835 H   0  0  0  0  0  0  0  0  0  0  0  0
    3.7125   -0.2760   -0.4889 H   0  0  0  0  0  0  0  0  0  0  0  0
   -3.4525   -0.7477    0.1149 H   0  0  0  0  0  0  0  0  0  0  0  0
   -3.0206   -2.3514   -0.5266 H   0  0  0  0  0  0  0  0  0  0  0  0
   -3.5502   -2.1818    1.1620 H   0  0  0  0  0  0  0  0  0  0  0  0
  1  2  1  0
  2  3  1  0
  3  4  2  0
  3  5  1  0
  5  6  1  0
  6  7  1  0
  6  8  2  0
  3  9  1  0
  9 10  1  0
  1 11  1  0
  1 12  1  0
  1 13  1  0
  5 14  1  0
  7 15  1  0
  7 16  1  0
  7 17  1  0
 10 18  1  0
 10 19  1  0
 10 20  1  0
M  END
>  <Energy>  (4) 
-152.91464350022486

>  <Real charge>  (4) 
0

>  <Mult>  (4) 
1

$$$$
mol_759 186
     RDKit          3D

 20 19  0  0  0  0  0  0  0  0999 V2000
   -0.9046   -2.3113    0.4091 C   0  0  0  0  0  0  0  0  0  0  0  0
   -1.0353   -1.0020   -0.1021 O   0  0  0  0  0  0  0  0  0  0  0  0
   -0.5831    0.2227    0.8460 P   0  0  0  0  0  5  0  0  0  0  0  0
   -1.1654    0.0798    2.2255 O   0  0  0  0  0  0  0  0  0  0  0  0
    1.0922    0.1634    0.9568 N   0  0  0  0  0  0  0  0  0  0  0  0
    1.9042    0.1690   -0.1332 C   0  0  0  0  0  0  0  0  0  0  0  0
    3.3737    0.2305    0.1853 C   0  0  0  0  0  0  0  0  0  0  0  0
    1.4983    0.1242   -1.2878 O   0  0  0  0  0  0  0  0  0  0  0  0
   -1.1982    2.0356    0.0299 S   0  0  0  0  0  0  0  0  0  0  0  0
   -2.9822    1.8365   -0.1012 C   0  0  0  0  0  0  0  0  0  0  0  0
   -1.5897   -2.4564    1.2485 H   0  0  0  0  0  0  0  0  0  0  0  0
   -1.1596   -3.0229   -0.3802 H   0  0  0  0  0  0  0  0  0  0  0  0
    0.1232   -2.4970    0.7316 H   0  0  0  0  0  0  0  0  0  0  0  0
    1.4639    0.3015    1.8814 H   0  0  0  0  0  0  0  0  0  0  0  0
    3.5599    0.1783    1.2616 H   0  0  0  0  0  0  0  0  0  0  0  0
    3.7824    1.1701   -0.1960 H   0  0  0  0  0  0  0  0  0  0  0  0
    3.8780   -0.6136   -0.2930 H   0  0  0  0  0  0  0  0  0  0  0  0
   -3.4250    2.7413   -0.5249 H   0  0  0  0  0  0  0  0  0  0  0  0
   -3.4141    1.6605    0.8871 H   0  0  0  0  0  0  0  0  0  0  0  0
   -3.2185    0.9895   -0.7502 H   0  0  0  0  0  0  0  0  0  0  0  0
  1  2  1  0
  2  3  1  0
  3  4  2  0
  3  5  1  0
  5  6  1  0
  6  7  1  0
  6  8  2  0
  3  9  1  0
  9 10  1  0
  1 11  1  0
  1 12  1  0
  1 13  1  0
  5 14  1  0
  7 15  1  0
  7 16  1  0
  7 17  1  0
 10 18  1  0
 10 19  1  0
 10 20  1  0
M  END
>  <Energy>  (5) 
-152.45470626843706

>  <Real charge>  (5) 
0

>  <Mult>  (5) 
1

$$$$
mol_759 292
     RDKit          3D

 20 19  0  0  0  0  0  0  0  0999 V2000
    3.1268   -0.0523   -0.6313 C   0  0  0  0  0  0  0  0  0  0  0  0
    1.8626   -0.6137   -0.3448 O   0  0  0  0  0  0  0  0  0  0  0  0
    0.5646    0.3193   -0.5720 P   0  0  0  0  0  5  0  0  0  0  0  0
    0.5182    0.8344   -1.9850 O   0  0  0  0  0  0  0  0  0  0  0  0
   -0.7411   -0.7159   -0.3470 N   0  0  0  0  0  0  0  0  0  0  0  0
   -0.9559   -1.3751    0.8227 C   0  0  0  0  0  0  0  0  0  0  0  0
   -2.0660   -2.3898    0.7691 C   0  0  0  0  0  0  0  0  0  0  0  0
   -0.3175   -1.1744    1.8483 O   0  0  0  0  0  0  0  0  0  0  0  0
    0.5201    1.9296    0.7484 S   0  0  0  0  0  0  0  0  0  0  0  0
   -0.9481    2.8432    0.2538 C   0  0  0  0  0  0  0  0  0  0  0  0
    3.8906   -0.8210   -0.4886 H   0  0  0  0  0  0  0  0  0  0  0  0
    3.1654    0.2919   -1.6682 H   0  0  0  0  0  0  0  0  0  0  0  0
    3.3365    0.7794    0.0458 H   0  0  0  0  0  0  0  0  0  0  0  0
   -1.1740   -1.0321   -1.1984 H   0  0  0  0  0  0  0  0  0  0  0  0
   -2.7697   -2.1921    1.5823 H   0  0  0  0  0  0  0  0  0  0  0  0
   -1.6408   -3.3905    0.8828 H   0  0  0  0  0  0  0  0  0  0  0  0
   -2.6129   -2.3445   -0.1768 H   0  0  0  0  0  0  0  0  0  0  0  0
   -1.0775    3.7136    0.9018 H   0  0  0  0  0  0  0  0  0  0  0  0
   -1.8322    2.2061    0.3368 H   0  0  0  0  0  0  0  0  0  0  0  0
   -0.8491    3.1839   -0.7798 H   0  0  0  0  0  0  0  0  0  0  0  0
  1  2  1  0
  2  3  1  0
  3  4  2  0
  3  5  1  0
  5  6  1  0
  6  7  1  0
  6  8  2  0
  3  9  1  0
  9 10  1  0
  1 11  1  0
  1 12  1  0
  1 13  1  0
  5 14  1  0
  7 15  1  0
  7 16  1  0
  7 17  1  0
 10 18  1  0
 10 19  1  0
 10 20  1  0
M  END
>  <Energy>  (6) 
-152.41712106295208

>  <Real charge>  (6) 
0

>  <Mult>  (6) 
1

$$$$
mol_759 40
     RDKit          3D

 20 19  0  0  0  0  0  0  0  0999 V2000
    0.3298    2.6927    0.0952 C   0  0  0  0  0  0  0  0  0  0  0  0
    0.9916    1.4779   -0.1869 O   0  0  0  0  0  0  0  0  0  0  0  0
    0.9635    0.3283    0.9446 P   0  0  0  0  0  5  0  0  0  0  0  0
    1.2379    0.9034    2.3071 O   0  0  0  0  0  0  0  0  0  0  0  0
   -0.5886   -0.3134    0.9548 N   0  0  0  0  0  0  0  0  0  0  0  0
   -1.2662   -0.6882   -0.1602 C   0  0  0  0  0  0  0  0  0  0  0  0
   -2.6415   -1.2405    0.1014 C   0  0  0  0  0  0  0  0  0  0  0  0
   -0.8177   -0.5952   -1.2963 O   0  0  0  0  0  0  0  0  0  0  0  0
    2.3714   -1.1456    0.5216 S   0  0  0  0  0  0  0  0  0  0  0  0
    2.2375   -1.4302   -1.2498 C   0  0  0  0  0  0  0  0  0  0  0  0
   -0.7036    2.5060    0.3993 H   0  0  0  0  0  0  0  0  0  0  0  0
    0.3253    3.3075   -0.8083 H   0  0  0  0  0  0  0  0  0  0  0  0
    0.8585    3.2318    0.8856 H   0  0  0  0  0  0  0  0  0  0  0  0
   -0.9957   -0.4101    1.8702 H   0  0  0  0  0  0  0  0  0  0  0  0
   -3.3789   -0.6209   -0.4162 H   0  0  0  0  0  0  0  0  0  0  0  0
   -2.8821   -1.2486    1.1681 H   0  0  0  0  0  0  0  0  0  0  0  0
   -2.6911   -2.2662   -0.2739 H   0  0  0  0  0  0  0  0  0  0  0  0
    3.1031   -2.0034   -1.5922 H   0  0  0  0  0  0  0  0  0  0  0  0
    2.2106   -0.4813   -1.7906 H   0  0  0  0  0  0  0  0  0  0  0  0
    1.3361   -2.0042   -1.4735 H   0  0  0  0  0  0  0  0  0  0  0  0
  1  2  1  0
  2  3  1  0
  3  4  2  0
  3  5  1  0
  5  6  1  0
  6  7  1  0
  6  8  2  0
  3  9  1  0
  9 10  1  0
  1 11  1  0
  1 12  1  0
  1 13  1  0
  5 14  1  0
  7 15  1  0
  7 16  1  0
  7 17  1  0
 10 18  1  0
 10 19  1  0
 10 20  1  0
M  END
>  <Energy>  (7) 
-152.35028994260853

>  <Real charge>  (7) 
0

>  <Mult>  (7) 
1

$$$$
