mol_323 104
     RDKit          3D

 28 29  0  0  0  0  0  0  0  0999 V2000
    0.2358   -0.7710   -1.1525 O   0  0  0  0  0  0  0  0  0  0  0  0
    0.0234   -0.0764   -0.1681 C   0  0  0  0  0  0  0  0  0  0  0  0
    0.9919    0.6268    0.5362 N   0  0  0  0  0  0  0  0  0  0  0  0
    2.3886    0.5966    0.3409 C   0  0  0  0  0  0  0  0  0  0  0  0
    3.0401   -0.3119   -0.4952 C   0  0  0  0  0  0  0  0  0  0  0  0
    4.4326   -0.2836   -0.6252 C   0  0  0  0  0  0  0  0  0  0  0  0
    5.1855    0.6496    0.0830 C   0  0  0  0  0  0  0  0  0  0  0  0
    4.5471    1.5552    0.9255 C   0  0  0  0  0  0  0  0  0  0  0  0
    3.1558    1.5268    1.0553 C   0  0  0  0  0  0  0  0  0  0  0  0
   -1.2223    0.1263    0.4116 N   0  0  0  0  0  0  0  0  0  0  0  0
   -2.4742   -0.3169   -0.0641 C   0  0  0  0  0  0  0  0  0  0  0  0
   -2.6736   -0.8865   -1.3228 C   0  0  0  0  0  0  0  0  0  0  0  0
   -3.9513   -1.2900   -1.7244 C   0  0  0  0  0  0  0  0  0  0  0  0
   -5.0408   -1.1228   -0.8733 C   0  0  0  0  0  0  0  0  0  0  0  0
   -4.8548   -0.5489    0.3811 C   0  0  0  0  0  0  0  0  0  0  0  0
   -3.5782   -0.1458    0.7823 C   0  0  0  0  0  0  0  0  0  0  0  0
    0.6501    1.3488    1.1506 H   0  0  0  0  0  0  0  0  0  0  0  0
    2.4934   -1.0626   -1.0575 H   0  0  0  0  0  0  0  0  0  0  0  0
    4.9252   -0.9960   -1.2823 H   0  0  0  0  0  0  0  0  0  0  0  0
    6.2671    0.6683   -0.0215 H   0  0  0  0  0  0  0  0  0  0  0  0
    5.1309    2.2839    1.4815 H   0  0  0  0  0  0  0  0  0  0  0  0
    2.6840    2.2451    1.7201 H   0  0  0  0  0  0  0  0  0  0  0  0
   -1.2151    0.4986    1.3480 H   0  0  0  0  0  0  0  0  0  0  0  0
   -1.8547   -1.0258   -2.0219 H   0  0  0  0  0  0  0  0  0  0  0  0
   -4.0901   -1.7344   -2.7069 H   0  0  0  0  0  0  0  0  0  0  0  0
   -6.0316   -1.4382   -1.1892 H   0  0  0  0  0  0  0  0  0  0  0  0
   -5.7026   -0.4148    1.0478 H   0  0  0  0  0  0  0  0  0  0  0  0
   -3.4622    0.2994    1.7666 H   0  0  0  0  0  0  0  0  0  0  0  0
  1  2  2  0
  2  3  1  0
  3  4  1  0
  4  5  2  0
  5  6  1  0
  6  7  2  0
  7  8  1  0
  8  9  2  0
  2 10  1  0
 10 11  1  0
 11 12  2  0
 12 13  1  0
 13 14  2  0
 14 15  1  0
 15 16  2  0
  9  4  1  0
 16 11  1  0
  3 17  1  0
  5 18  1  0
  6 19  1  0
  7 20  1  0
  8 21  1  0
  9 22  1  0
 10 23  1  0
 12 24  1  0
 13 25  1  0
 14 26  1  0
 15 27  1  0
 16 28  1  0
M  END
>  <Energy>  (1) 
-27.06056915458882

>  <Real charge>  (1) 
0

>  <Mult>  (1) 
1

$$$$
