mol_584 323
     RDKit          3D

 39 41  0  0  0  0  0  0  0  0999 V2000
   -1.9518    4.0361    0.1889 C   0  0  0  0  0  0  0  0  0  0  0  0
   -1.3422    2.8136   -0.4447 C   0  0  0  0  0  0  0  0  0  0  0  0
   -0.4173    2.9057   -1.2553 O   0  0  0  0  0  0  0  0  0  0  0  0
   -1.9493    1.4761   -0.0574 C   0  0  0  0  0  0  0  0  0  0  0  0
   -1.1100    0.2923   -0.5805 C   0  0  0  0  0  0  0  0  0  0  0  0
   -1.8579   -1.0433   -0.6522 C   0  0  0  0  0  0  0  0  0  0  0  0
   -1.4547   -1.9942   -1.6091 C   0  0  0  0  0  0  0  0  0  0  0  0
   -2.1006   -3.2287   -1.7112 C   0  0  0  0  0  0  0  0  0  0  0  0
   -3.1533   -3.5301   -0.8528 C   0  0  0  0  0  0  0  0  0  0  0  0
   -3.9497   -5.0500   -0.9752 Cl  0  0  0  0  0  0  0  0  0  0  0  0
   -3.5613   -2.6092    0.1079 C   0  0  0  0  0  0  0  0  0  0  0  0
   -2.9161   -1.3729    0.2088 C   0  0  0  0  0  0  0  0  0  0  0  0
    0.2388    0.1584    0.1240 C   0  0  0  0  0  0  0  0  0  0  0  0
    1.4118    0.4548   -0.4656 C   0  0  0  0  0  0  0  0  0  0  0  0
    1.5070    1.0415   -1.7120 O   0  0  0  0  0  0  0  0  0  0  0  0
    2.6859    0.1575    0.1833 C   0  0  0  0  0  0  0  0  0  0  0  0
    3.9296    0.4105   -0.4070 C   0  0  0  0  0  0  0  0  0  0  0  0
    5.1139    0.0813    0.2613 C   0  0  0  0  0  0  0  0  0  0  0  0
    5.0663   -0.5060    1.5259 C   0  0  0  0  0  0  0  0  0  0  0  0
    3.8351   -0.7626    2.1241 C   0  0  0  0  0  0  0  0  0  0  0  0
    2.6649   -0.4264    1.4439 C   0  0  0  0  0  0  0  0  0  0  0  0
    1.4497   -0.6839    2.0963 O   0  0  0  0  0  0  0  0  0  0  0  0
    0.2345   -0.3290    1.5295 C   0  0  0  0  0  0  0  0  0  0  0  0
   -0.7987   -0.3876    2.1891 O   0  0  0  0  0  0  0  0  0  0  0  0
   -1.8499    3.9750    1.2751 H   0  0  0  0  0  0  0  0  0  0  0  0
   -1.4329    4.9317   -0.1639 H   0  0  0  0  0  0  0  0  0  0  0  0
   -3.0064    4.1046   -0.0887 H   0  0  0  0  0  0  0  0  0  0  0  0
   -2.9544    1.4522   -0.4962 H   0  0  0  0  0  0  0  0  0  0  0  0
   -2.0565    1.4505    1.0316 H   0  0  0  0  0  0  0  0  0  0  0  0
   -0.9257    0.5219   -1.6405 H   0  0  0  0  0  0  0  0  0  0  0  0
   -0.6281   -1.7777   -2.2850 H   0  0  0  0  0  0  0  0  0  0  0  0
   -1.7747   -3.9478   -2.4578 H   0  0  0  0  0  0  0  0  0  0  0  0
   -4.3732   -2.8485    0.7895 H   0  0  0  0  0  0  0  0  0  0  0  0
   -3.2391   -0.6868    0.9889 H   0  0  0  0  0  0  0  0  0  0  0  0
    0.8316    1.7570   -1.7602 H   0  0  0  0  0  0  0  0  0  0  0  0
    3.9874    0.8608   -1.3958 H   0  0  0  0  0  0  0  0  0  0  0  0
    6.0733    0.2817   -0.2096 H   0  0  0  0  0  0  0  0  0  0  0  0
    5.9876   -0.7621    2.0428 H   0  0  0  0  0  0  0  0  0  0  0  0
    3.7865   -1.2163    3.1096 H   0  0  0  0  0  0  0  0  0  0  0  0
  1  2  1  0
  2  3  2  0
  2  4  1  0
  4  5  1  0
  5  6  1  0
  6  7  2  0
  7  8  1  0
  8  9  2  0
  9 10  1  0
  9 11  1  0
 11 12  2  0
  5 13  1  0
 13 14  2  0
 14 15  1  0
 14 16  1  0
 16 17  2  0
 17 18  1  0
 18 19  2  0
 19 20  1  0
 20 21  2  0
 21 22  1  0
 22 23  1  0
 23 24  2  0
 12  6  1  0
 23 13  1  0
 21 16  1  0
  1 25  1  0
  1 26  1  0
  1 27  1  0
  4 28  1  0
  4 29  1  0
  5 30  1  0
  7 31  1  0
  8 32  1  0
 11 33  1  0
 12 34  1  0
 15 35  1  0
 17 36  1  0
 18 37  1  0
 19 38  1  0
 20 39  1  0
M  END
>  <Energy>  (1) 
43.845635850311325

>  <Real charge>  (1) 
0

>  <Mult>  (1) 
1

$$$$
