mol_302 16
     RDKit          3D

  8  7  0  0  0  0  0  0  0  0999 V2000
   -0.7872   -0.2165   -0.0038 C   0  0  0  0  0  0  0  0  0  0  0  0
    0.6814    0.1426    0.1321 C   0  0  0  0  0  0  0  0  0  0  0  0
    1.6526   -0.7740   -1.0426 Cl  0  0  0  0  0  0  0  0  0  0  0  0
    0.9161    1.8879   -0.1179 Cl  0  0  0  0  0  0  0  0  0  0  0  0
   -1.3913    0.3275    0.7305 H   0  0  0  0  0  0  0  0  0  0  0  0
   -0.9447   -1.2866    0.1697 H   0  0  0  0  0  0  0  0  0  0  0  0
   -1.1738    0.0229   -1.0009 H   0  0  0  0  0  0  0  0  0  0  0  0
    1.0469   -0.1039    1.1329 H   0  0  0  0  0  0  0  0  0  0  0  0
  1  2  1  0
  2  3  1  0
  2  4  1  0
  1  5  1  0
  1  6  1  0
  1  7  1  0
  2  8  1  0
M  END
>  <Energy>  (1) 
0.4376303719936577

>  <Real charge>  (1) 
0

>  <Mult>  (1) 
1

$$$$
