mol_251 52
     RDKit          3D

 33 35  0  0  0  0  0  0  0  0999 V2000
    2.2056   -2.0689   -1.7322 C   0  0  0  0  0  0  0  0  0  0  0  0
    1.1576   -2.1658   -0.6234 C   0  0  0  0  0  0  0  0  0  0  0  0
    0.5049   -0.8632   -0.3858 N   0  0  0  0  0  0  0  0  0  0  0  0
   -0.8094   -0.9942    0.1336 C   0  0  0  0  0  0  0  0  0  0  0  0
   -1.1808   -2.1986    0.6559 N   0  0  0  0  0  0  0  0  0  0  0  0
   -2.4291   -2.3533    1.1367 C   0  0  0  0  0  0  0  0  0  0  0  0
   -3.3742   -1.3553    1.1203 C   0  0  0  0  0  0  0  0  0  0  0  0
   -3.0119   -0.1298    0.5745 C   0  0  0  0  0  0  0  0  0  0  0  0
   -1.7150    0.0872    0.0708 C   0  0  0  0  0  0  0  0  0  0  0  0
   -1.4075    1.3454   -0.5457 N   0  0  0  0  0  0  0  0  0  0  0  0
   -2.5056    2.0942   -1.1530 C   0  0  0  0  0  0  0  0  0  0  0  0
   -0.1545    1.9688   -0.5691 C   0  0  0  0  0  0  0  0  0  0  0  0
    0.0230    3.0514   -1.1383 O   0  0  0  0  0  0  0  0  0  0  0  0
    0.9983    1.4473    0.1873 C   0  0  0  0  0  0  0  0  0  0  0  0
    1.8454    2.3851    0.8032 C   0  0  0  0  0  0  0  0  0  0  0  0
    3.0003    1.9639    1.4456 C   0  0  0  0  0  0  0  0  0  0  0  0
    3.2791    0.6149    1.4317 C   0  0  0  0  0  0  0  0  0  0  0  0
    2.4899   -0.3051    0.8354 N   0  0  0  0  0  0  0  0  0  0  0  0
    1.3437    0.1005    0.2166 C   0  0  0  0  0  0  0  0  0  0  0  0
    3.0500   -1.4313   -1.4559 H   0  0  0  0  0  0  0  0  0  0  0  0
    2.6027   -3.0635   -1.9597 H   0  0  0  0  0  0  0  0  0  0  0  0
    1.7647   -1.6611   -2.6482 H   0  0  0  0  0  0  0  0  0  0  0  0
    0.4265   -2.8982   -0.9933 H   0  0  0  0  0  0  0  0  0  0  0  0
    1.5915   -2.5891    0.2921 H   0  0  0  0  0  0  0  0  0  0  0  0
   -2.6505   -3.3344    1.5466 H   0  0  0  0  0  0  0  0  0  0  0  0
   -4.3682   -1.5218    1.5194 H   0  0  0  0  0  0  0  0  0  0  0  0
   -3.7571    0.6602    0.5738 H   0  0  0  0  0  0  0  0  0  0  0  0
   -3.0030    2.6863   -0.3784 H   0  0  0  0  0  0  0  0  0  0  0  0
   -2.1447    2.7787   -1.9269 H   0  0  0  0  0  0  0  0  0  0  0  0
   -3.2166    1.4145   -1.6340 H   0  0  0  0  0  0  0  0  0  0  0  0
    1.6061    3.4458    0.7650 H   0  0  0  0  0  0  0  0  0  0  0  0
    3.6673    2.6697    1.9268 H   0  0  0  0  0  0  0  0  0  0  0  0
    4.1713    0.2194    1.9086 H   0  0  0  0  0  0  0  0  0  0  0  0
  1  2  1  0
  2  3  1  0
  3  4  1  0
  4  5  2  0
  5  6  1  0
  6  7  2  0
  7  8  1  0
  8  9  2  0
  9 10  1  0
 10 11  1  0
 10 12  1  0
 12 13  2  0
 12 14  1  0
 14 15  2  0
 15 16  1  0
 16 17  2  0
 17 18  1  0
 18 19  2  0
  9  4  1  0
 19  3  1  0
 19 14  1  0
  1 20  1  0
  1 21  1  0
  1 22  1  0
  2 23  1  0
  2 24  1  0
  6 25  1  0
  7 26  1  0
  8 27  1  0
 11 28  1  0
 11 29  1  0
 11 30  1  0
 15 31  1  0
 16 32  1  0
 17 33  1  0
M  END
>  <Energy>  (1) 
48.80009543149898

>  <Real charge>  (1) 
0

>  <Mult>  (1) 
1

$$$$
mol_251 4
     RDKit          3D

 33 35  0  0  0  0  0  0  0  0999 V2000
    0.3918    2.8208   -2.1333 C   0  0  0  0  0  0  0  0  0  0  0  0
    1.1095    2.1866   -0.9418 C   0  0  0  0  0  0  0  0  0  0  0  0
    0.5869    0.8354   -0.6586 N   0  0  0  0  0  0  0  0  0  0  0  0
   -0.7215    0.8189   -0.1133 C   0  0  0  0  0  0  0  0  0  0  0  0
   -1.2260    1.9803    0.3930 N   0  0  0  0  0  0  0  0  0  0  0  0
   -2.4751    1.9954    0.8957 C   0  0  0  0  0  0  0  0  0  0  0  0
   -3.2937    0.8916    0.9182 C   0  0  0  0  0  0  0  0  0  0  0  0
   -2.7958   -0.2936    0.3907 C   0  0  0  0  0  0  0  0  0  0  0  0
   -1.4910   -0.3645   -0.1340 C   0  0  0  0  0  0  0  0  0  0  0  0
   -1.0436   -1.5916   -0.7266 N   0  0  0  0  0  0  0  0  0  0  0  0
   -2.0524   -2.4828   -1.2951 C   0  0  0  0  0  0  0  0  0  0  0  0
    0.2745   -2.0616   -0.7549 C   0  0  0  0  0  0  0  0  0  0  0  0
    0.5713   -3.1325   -1.2959 O   0  0  0  0  0  0  0  0  0  0  0  0
    1.3693   -1.3826   -0.0378 C   0  0  0  0  0  0  0  0  0  0  0  0
    2.3364   -2.1927    0.5826 C   0  0  0  0  0  0  0  0  0  0  0  0
    3.4458   -1.6167    1.1840 C   0  0  0  0  0  0  0  0  0  0  0  0
    3.5607   -0.2451    1.1248 C   0  0  0  0  0  0  0  0  0  0  0  0
    2.6541    0.5555    0.5231 N   0  0  0  0  0  0  0  0  0  0  0  0
    1.5507   -0.0038   -0.0534 C   0  0  0  0  0  0  0  0  0  0  0  0
   -0.6656    3.0133   -1.9318 H   0  0  0  0  0  0  0  0  0  0  0  0
    0.8602    3.7774   -2.3863 H   0  0  0  0  0  0  0  0  0  0  0  0
    0.4509    2.1702   -3.0126 H   0  0  0  0  0  0  0  0  0  0  0  0
    2.1641    2.1327   -1.2466 H   0  0  0  0  0  0  0  0  0  0  0  0
    1.0716    2.8433   -0.0628 H   0  0  0  0  0  0  0  0  0  0  0  0
   -2.8053    2.9520    1.2899 H   0  0  0  0  0  0  0  0  0  0  0  0
   -4.2934    0.9467    1.3335 H   0  0  0  0  0  0  0  0  0  0  0  0
   -3.4399   -1.1674    0.4218 H   0  0  0  0  0  0  0  0  0  0  0  0
   -1.6236   -3.1368   -2.0607 H   0  0  0  0  0  0  0  0  0  0  0  0
   -2.8492   -1.9067   -1.7767 H   0  0  0  0  0  0  0  0  0  0  0  0
   -2.4604   -3.1121   -0.4978 H   0  0  0  0  0  0  0  0  0  0  0  0
    2.2263   -3.2752    0.5795 H   0  0  0  0  0  0  0  0  0  0  0  0
    4.2030   -2.2226    1.6678 H   0  0  0  0  0  0  0  0  0  0  0  0
    4.4094    0.2683    1.5676 H   0  0  0  0  0  0  0  0  0  0  0  0
  1  2  1  0
  2  3  1  0
  3  4  1  0
  4  5  2  0
  5  6  1  0
  6  7  2  0
  7  8  1  0
  8  9  2  0
  9 10  1  0
 10 11  1  0
 10 12  1  0
 12 13  2  0
 12 14  1  0
 14 15  2  0
 15 16  1  0
 16 17  2  0
 17 18  1  0
 18 19  2  0
  9  4  1  0
 19  3  1  0
 19 14  1  0
  1 20  1  0
  1 21  1  0
  1 22  1  0
  2 23  1  0
  2 24  1  0
  6 25  1  0
  7 26  1  0
  8 27  1  0
 11 28  1  0
 11 29  1  0
 11 30  1  0
 15 31  1  0
 16 32  1  0
 17 33  1  0
M  END
>  <Energy>  (2) 
48.81486607264861

>  <Real charge>  (2) 
0

>  <Mult>  (2) 
1

$$$$
