mol_422 554
     RDKit          3D

 37 37  0  0  0  0  0  0  0  0999 V2000
   -2.4150    2.2190    0.3181 C   0  0  0  0  0  0  0  0  0  0  0  0
   -2.4902    0.9669   -0.5431 C   0  0  0  0  0  0  0  0  0  0  0  0
   -2.3080   -0.2296    0.2650 N   0  0  0  0  0  0  0  0  0  0  0  0
   -3.4730   -0.9222    0.7959 C   0  0  0  0  0  0  0  0  0  0  0  0
   -3.9094   -2.0430   -0.1362 C   0  0  0  0  0  0  0  0  0  0  0  0
   -1.0387   -0.7051    0.5226 C   0  0  0  0  0  0  0  0  0  0  0  0
   -0.9044   -1.8028    1.2452 N   0  0  0  0  0  0  0  0  0  0  0  0
    0.3504   -2.1723    1.4305 C   0  0  0  0  0  0  0  0  0  0  0  0
    0.5786   -3.5911    2.3588 Cl  0  0  0  0  0  0  0  0  0  0  0  0
    1.4519   -1.5897    0.9915 N   0  0  0  0  0  0  0  0  0  0  0  0
    1.2338   -0.4996    0.2780 C   0  0  0  0  0  0  0  0  0  0  0  0
    0.0071   -0.0405    0.0322 N   0  0  0  0  0  0  0  0  0  0  0  0
    2.3151    0.1884   -0.2327 N   0  0  0  0  0  0  0  0  0  0  0  0
    2.1076    1.3826   -1.0380 C   0  0  0  0  0  0  0  0  0  0  0  0
    1.9950    2.6178   -0.1567 C   0  0  0  0  0  0  0  0  0  0  0  0
    3.6700   -0.2764    0.0270 C   0  0  0  0  0  0  0  0  0  0  0  0
    4.0914   -1.3196   -0.9974 C   0  0  0  0  0  0  0  0  0  0  0  0
   -1.4384    2.3145    0.8028 H   0  0  0  0  0  0  0  0  0  0  0  0
   -2.5782    3.1107   -0.2951 H   0  0  0  0  0  0  0  0  0  0  0  0
   -3.1772    2.2020    1.1042 H   0  0  0  0  0  0  0  0  0  0  0  0
   -3.4718    0.9362   -1.0323 H   0  0  0  0  0  0  0  0  0  0  0  0
   -1.7598    1.0231   -1.3594 H   0  0  0  0  0  0  0  0  0  0  0  0
   -3.2886   -1.3156    1.8031 H   0  0  0  0  0  0  0  0  0  0  0  0
   -4.3044   -0.2148    0.9068 H   0  0  0  0  0  0  0  0  0  0  0  0
   -4.1415   -1.6568   -1.1343 H   0  0  0  0  0  0  0  0  0  0  0  0
   -3.1274   -2.8013   -0.2452 H   0  0  0  0  0  0  0  0  0  0  0  0
   -4.8054   -2.5341    0.2559 H   0  0  0  0  0  0  0  0  0  0  0  0
    1.2231    1.2928   -1.6805 H   0  0  0  0  0  0  0  0  0  0  0  0
    2.9533    1.5171   -1.7239 H   0  0  0  0  0  0  0  0  0  0  0  0
    1.8643    3.5124   -0.7733 H   0  0  0  0  0  0  0  0  0  0  0  0
    1.1417    2.5478    0.5251 H   0  0  0  0  0  0  0  0  0  0  0  0
    2.8967    2.7511    0.4503 H   0  0  0  0  0  0  0  0  0  0  0  0
    3.7751   -0.6769    1.0427 H   0  0  0  0  0  0  0  0  0  0  0  0
    4.3671    0.5692   -0.0267 H   0  0  0  0  0  0  0  0  0  0  0  0
    3.4512   -2.2065   -0.9533 H   0  0  0  0  0  0  0  0  0  0  0  0
    4.0353   -0.9175   -2.0145 H   0  0  0  0  0  0  0  0  0  0  0  0
    5.1226   -1.6365   -0.8129 H   0  0  0  0  0  0  0  0  0  0  0  0
  1  2  1  0
  2  3  1  0
  3  4  1  0
  4  5  1  0
  3  6  1  0
  6  7  2  0
  7  8  1  0
  8  9  1  0
  8 10  2  0
 10 11  1  0
 11 12  2  0
 11 13  1  0
 13 14  1  0
 14 15  1  0
 13 16  1  0
 16 17  1  0
 12  6  1  0
  1 18  1  0
  1 19  1  0
  1 20  1  0
  2 21  1  0
  2 22  1  0
  4 23  1  0
  4 24  1  0
  5 25  1  0
  5 26  1  0
  5 27  1  0
 14 28  1  0
 14 29  1  0
 15 30  1  0
 15 31  1  0
 15 32  1  0
 16 33  1  0
 16 34  1  0
 17 35  1  0
 17 36  1  0
 17 37  1  0
M  END
>  <Energy>  (1) 
-216.56053977552176

>  <Real charge>  (1) 
0

>  <Mult>  (1) 
1

$$$$
mol_422 218
     RDKit          3D

 37 37  0  0  0  0  0  0  0  0999 V2000
   -3.9020   -1.4531   -1.4247 C   0  0  0  0  0  0  0  0  0  0  0  0
   -3.6345   -0.2403   -0.5453 C   0  0  0  0  0  0  0  0  0  0  0  0
   -2.3121   -0.3131    0.0588 N   0  0  0  0  0  0  0  0  0  0  0  0
   -2.1479   -0.9613    1.3517 C   0  0  0  0  0  0  0  0  0  0  0  0
   -2.1162    0.0683    2.4715 C   0  0  0  0  0  0  0  0  0  0  0  0
   -1.2055    0.1317   -0.6352 C   0  0  0  0  0  0  0  0  0  0  0  0
   -1.3729    0.6492   -1.8389 N   0  0  0  0  0  0  0  0  0  0  0  0
   -0.2502    1.0426   -2.4139 C   0  0  0  0  0  0  0  0  0  0  0  0
   -0.4122    1.7179   -3.9774 Cl  0  0  0  0  0  0  0  0  0  0  0  0
    0.9814    0.9825   -1.9390 N   0  0  0  0  0  0  0  0  0  0  0  0
    1.0640    0.4578   -0.7296 C   0  0  0  0  0  0  0  0  0  0  0  0
   -0.0066    0.0273   -0.0633 N   0  0  0  0  0  0  0  0  0  0  0  0
    2.3042    0.3460   -0.1349 N   0  0  0  0  0  0  0  0  0  0  0  0
    3.4929    0.8306   -0.8214 C   0  0  0  0  0  0  0  0  0  0  0  0
    3.6940    2.3199   -0.5823 C   0  0  0  0  0  0  0  0  0  0  0  0
    2.4152   -0.1529    1.2279 C   0  0  0  0  0  0  0  0  0  0  0  0
    2.5010   -1.6720    1.2413 C   0  0  0  0  0  0  0  0  0  0  0  0
   -3.1918   -1.5105   -2.2557 H   0  0  0  0  0  0  0  0  0  0  0  0
   -3.8202   -2.3821   -0.8507 H   0  0  0  0  0  0  0  0  0  0  0  0
   -4.9113   -1.4005   -1.8447 H   0  0  0  0  0  0  0  0  0  0  0  0
   -4.3964   -0.2023    0.2434 H   0  0  0  0  0  0  0  0  0  0  0  0
   -3.7663    0.6831   -1.1224 H   0  0  0  0  0  0  0  0  0  0  0  0
   -2.9850   -1.6471    1.5326 H   0  0  0  0  0  0  0  0  0  0  0  0
   -1.2470   -1.5864    1.3833 H   0  0  0  0  0  0  0  0  0  0  0  0
   -3.0317    0.6692    2.4782 H   0  0  0  0  0  0  0  0  0  0  0  0
   -2.0286   -0.4303    3.4419 H   0  0  0  0  0  0  0  0  0  0  0  0
   -1.2684    0.7524    2.3644 H   0  0  0  0  0  0  0  0  0  0  0  0
    3.4534    0.6212   -1.8974 H   0  0  0  0  0  0  0  0  0  0  0  0
    4.3748    0.2923   -0.4520 H   0  0  0  0  0  0  0  0  0  0  0  0
    2.8569    2.9059   -0.9750 H   0  0  0  0  0  0  0  0  0  0  0  0
    4.6085    2.6623   -1.0766 H   0  0  0  0  0  0  0  0  0  0  0  0
    3.7825    2.5392    0.4869 H   0  0  0  0  0  0  0  0  0  0  0  0
    3.3199    0.2513    1.6991 H   0  0  0  0  0  0  0  0  0  0  0  0
    1.5827    0.1872    1.8561 H   0  0  0  0  0  0  0  0  0  0  0  0
    2.6202   -2.0354    2.2667 H   0  0  0  0  0  0  0  0  0  0  0  0
    3.3563   -2.0220    0.6537 H   0  0  0  0  0  0  0  0  0  0  0  0
    1.5987   -2.1290    0.8227 H   0  0  0  0  0  0  0  0  0  0  0  0
  1  2  1  0
  2  3  1  0
  3  4  1  0
  4  5  1  0
  3  6  1  0
  6  7  2  0
  7  8  1  0
  8  9  1  0
  8 10  2  0
 10 11  1  0
 11 12  2  0
 11 13  1  0
 13 14  1  0
 14 15  1  0
 13 16  1  0
 16 17  1  0
 12  6  1  0
  1 18  1  0
  1 19  1  0
  1 20  1  0
  2 21  1  0
  2 22  1  0
  4 23  1  0
  4 24  1  0
  5 25  1  0
  5 26  1  0
  5 27  1  0
 14 28  1  0
 14 29  1  0
 15 30  1  0
 15 31  1  0
 15 32  1  0
 16 33  1  0
 16 34  1  0
 17 35  1  0
 17 36  1  0
 17 37  1  0
M  END
>  <Energy>  (2) 
-216.5406100888494

>  <Real charge>  (2) 
0

>  <Mult>  (2) 
1

$$$$
mol_422 192
     RDKit          3D

 37 37  0  0  0  0  0  0  0  0999 V2000
   -4.0763    1.6190   -0.9254 C   0  0  0  0  0  0  0  0  0  0  0  0
   -3.5956    0.7437    0.2228 C   0  0  0  0  0  0  0  0  0  0  0  0
   -2.3283    0.1068   -0.1052 N   0  0  0  0  0  0  0  0  0  0  0  0
   -2.3244   -1.2291   -0.6822 C   0  0  0  0  0  0  0  0  0  0  0  0
   -2.1938   -2.2870    0.4035 C   0  0  0  0  0  0  0  0  0  0  0  0
   -1.1385    0.7668    0.1238 C   0  0  0  0  0  0  0  0  0  0  0  0
   -1.1744    1.9846    0.6342 N   0  0  0  0  0  0  0  0  0  0  0  0
    0.0171    2.5280    0.8087 C   0  0  0  0  0  0  0  0  0  0  0  0
    0.0256    4.1070    1.4669 Cl  0  0  0  0  0  0  0  0  0  0  0  0
    1.2030    2.0111    0.5405 N   0  0  0  0  0  0  0  0  0  0  0  0
    1.1550    0.7909    0.0366 C   0  0  0  0  0  0  0  0  0  0  0  0
    0.0049    0.1529   -0.1796 N   0  0  0  0  0  0  0  0  0  0  0  0
    2.3393    0.1555   -0.2833 N   0  0  0  0  0  0  0  0  0  0  0  0
    2.3119   -1.1897   -0.8410 C   0  0  0  0  0  0  0  0  0  0  0  0
    2.1936   -2.2476    0.2460 C   0  0  0  0  0  0  0  0  0  0  0  0
    3.6116    0.8250   -0.0465 C   0  0  0  0  0  0  0  0  0  0  0  0
    4.0505    0.7084    1.4060 C   0  0  0  0  0  0  0  0  0  0  0  0
   -4.1920    1.0344   -1.8441 H   0  0  0  0  0  0  0  0  0  0  0  0
   -5.0454    2.0650   -0.6813 H   0  0  0  0  0  0  0  0  0  0  0  0
   -3.3720    2.4310   -1.1328 H   0  0  0  0  0  0  0  0  0  0  0  0
   -4.3545   -0.0238    0.4197 H   0  0  0  0  0  0  0  0  0  0  0  0
   -3.5286    1.3314    1.1465 H   0  0  0  0  0  0  0  0  0  0  0  0
   -3.2617   -1.3989   -1.2266 H   0  0  0  0  0  0  0  0  0  0  0  0
   -1.5289   -1.3501   -1.4276 H   0  0  0  0  0  0  0  0  0  0  0  0
   -2.2129   -3.2880   -0.0387 H   0  0  0  0  0  0  0  0  0  0  0  0
   -1.2570   -2.1786    0.9585 H   0  0  0  0  0  0  0  0  0  0  0  0
   -3.0170   -2.2165    1.1223 H   0  0  0  0  0  0  0  0  0  0  0  0
    1.4956   -1.3034   -1.5653 H   0  0  0  0  0  0  0  0  0  0  0  0
    3.2298   -1.3776   -1.4113 H   0  0  0  0  0  0  0  0  0  0  0  0
    3.0579   -2.2249    0.9161 H   0  0  0  0  0  0  0  0  0  0  0  0
    2.1447   -3.2446   -0.2031 H   0  0  0  0  0  0  0  0  0  0  0  0
    1.2955   -2.1061    0.8545 H   0  0  0  0  0  0  0  0  0  0  0  0
    4.3905    0.3840   -0.6805 H   0  0  0  0  0  0  0  0  0  0  0  0
    3.5634    1.8809   -0.3408 H   0  0  0  0  0  0  0  0  0  0  0  0
    3.3190    1.1516    2.0887 H   0  0  0  0  0  0  0  0  0  0  0  0
    4.1878   -0.3372    1.6966 H   0  0  0  0  0  0  0  0  0  0  0  0
    5.0044    1.2250    1.5528 H   0  0  0  0  0  0  0  0  0  0  0  0
  1  2  1  0
  2  3  1  0
  3  4  1  0
  4  5  1  0
  3  6  1  0
  6  7  2  0
  7  8  1  0
  8  9  1  0
  8 10  2  0
 10 11  1  0
 11 12  2  0
 11 13  1  0
 13 14  1  0
 14 15  1  0
 13 16  1  0
 16 17  1  0
 12  6  1  0
  1 18  1  0
  1 19  1  0
  1 20  1  0
  2 21  1  0
  2 22  1  0
  4 23  1  0
  4 24  1  0
  5 25  1  0
  5 26  1  0
  5 27  1  0
 14 28  1  0
 14 29  1  0
 15 30  1  0
 15 31  1  0
 15 32  1  0
 16 33  1  0
 16 34  1  0
 17 35  1  0
 17 36  1  0
 17 37  1  0
M  END
>  <Energy>  (3) 
-216.01947895733147

>  <Real charge>  (3) 
0

>  <Mult>  (3) 
1

$$$$
mol_422 111
     RDKit          3D

 37 37  0  0  0  0  0  0  0  0999 V2000
    2.1854   -2.5528   -0.4726 C   0  0  0  0  0  0  0  0  0  0  0  0
    2.3658   -1.3097    0.3862 C   0  0  0  0  0  0  0  0  0  0  0  0
    2.2887   -0.1043   -0.4259 N   0  0  0  0  0  0  0  0  0  0  0  0
    3.5145    0.5303   -0.8881 C   0  0  0  0  0  0  0  0  0  0  0  0
    3.9935    1.5797    0.1043 C   0  0  0  0  0  0  0  0  0  0  0  0
    1.0641    0.4752   -0.6873 C   0  0  0  0  0  0  0  0  0  0  0  0
    1.0257    1.6026   -1.3745 N   0  0  0  0  0  0  0  0  0  0  0  0
   -0.1947    2.0702   -1.5684 C   0  0  0  0  0  0  0  0  0  0  0  0
   -0.2995    3.5324   -2.4503 Cl  0  0  0  0  0  0  0  0  0  0  0  0
   -1.3447    1.5572   -1.1682 N   0  0  0  0  0  0  0  0  0  0  0  0
   -1.2219    0.4309   -0.4889 C   0  0  0  0  0  0  0  0  0  0  0  0
   -0.0373   -0.1256   -0.2388 N   0  0  0  0  0  0  0  0  0  0  0  0
   -2.3616   -0.1950   -0.0227 N   0  0  0  0  0  0  0  0  0  0  0  0
   -2.2496   -1.4408    0.7237 C   0  0  0  0  0  0  0  0  0  0  0  0
   -1.9133   -1.1942    2.1872 C   0  0  0  0  0  0  0  0  0  0  0  0
   -3.6697    0.3979   -0.2678 C   0  0  0  0  0  0  0  0  0  0  0  0
   -3.9886    1.4947    0.7377 C   0  0  0  0  0  0  0  0  0  0  0  0
    2.2809   -3.4539    0.1411 H   0  0  0  0  0  0  0  0  0  0  0  0
    1.2007   -2.5713   -0.9505 H   0  0  0  0  0  0  0  0  0  0  0  0
    2.9416   -2.5969   -1.2634 H   0  0  0  0  0  0  0  0  0  0  0  0
    3.3454   -1.3642    0.8773 H   0  0  0  0  0  0  0  0  0  0  0  0
    1.6315   -1.3000    1.2010 H   0  0  0  0  0  0  0  0  0  0  0  0
    3.3904    0.9768   -1.8823 H   0  0  0  0  0  0  0  0  0  0  0  0
    4.2991   -0.2277   -1.0049 H   0  0  0  0  0  0  0  0  0  0  0  0
    4.9325    2.0246   -0.2394 H   0  0  0  0  0  0  0  0  0  0  0  0
    4.1669    1.1386    1.0914 H   0  0  0  0  0  0  0  0  0  0  0  0
    3.2606    2.3842    0.2222 H   0  0  0  0  0  0  0  0  0  0  0  0
   -1.5022   -2.1064    0.2738 H   0  0  0  0  0  0  0  0  0  0  0  0
   -3.1953   -1.9941    0.6734 H   0  0  0  0  0  0  0  0  0  0  0  0
   -1.8279   -2.1474    2.7187 H   0  0  0  0  0  0  0  0  0  0  0  0
   -0.9662   -0.6584    2.3023 H   0  0  0  0  0  0  0  0  0  0  0  0
   -2.6927   -0.6049    2.6792 H   0  0  0  0  0  0  0  0  0  0  0  0
   -4.4484   -0.3716   -0.2008 H   0  0  0  0  0  0  0  0  0  0  0  0
   -3.7409    0.7922   -1.2891 H   0  0  0  0  0  0  0  0  0  0  0  0
   -4.9721    1.9256    0.5245 H   0  0  0  0  0  0  0  0  0  0  0  0
   -4.0086    1.1030    1.7589 H   0  0  0  0  0  0  0  0  0  0  0  0
   -3.2519    2.3033    0.7040 H   0  0  0  0  0  0  0  0  0  0  0  0
  1  2  1  0
  2  3  1  0
  3  4  1  0
  4  5  1  0
  3  6  1  0
  6  7  2  0
  7  8  1  0
  8  9  1  0
  8 10  2  0
 10 11  1  0
 11 12  2  0
 11 13  1  0
 13 14  1  0
 14 15  1  0
 13 16  1  0
 16 17  1  0
 12  6  1  0
  1 18  1  0
  1 19  1  0
  1 20  1  0
  2 21  1  0
  2 22  1  0
  4 23  1  0
  4 24  1  0
  5 25  1  0
  5 26  1  0
  5 27  1  0
 14 28  1  0
 14 29  1  0
 15 30  1  0
 15 31  1  0
 15 32  1  0
 16 33  1  0
 16 34  1  0
 17 35  1  0
 17 36  1  0
 17 37  1  0
M  END
>  <Energy>  (4) 
-216.01259378178344

>  <Real charge>  (4) 
0

>  <Mult>  (4) 
1

$$$$
