mol_681 111
     RDKit          3D

 17 17  0  0  0  0  0  0  0  0999 V2000
    2.6103   -0.4853   -0.2497 C   0  0  0  0  0  0  0  0  0  0  0  0
    1.6503    0.5643   -0.2855 O   0  0  0  0  0  0  0  0  0  0  0  0
    0.3438    0.2058   -0.0724 C   0  0  0  0  0  0  0  0  0  0  0  0
   -0.1285   -1.0832    0.1745 C   0  0  0  0  0  0  0  0  0  0  0  0
   -1.4974   -1.3002    0.3745 C   0  0  0  0  0  0  0  0  0  0  0  0
   -2.3975   -0.2338    0.3289 C   0  0  0  0  0  0  0  0  0  0  0  0
   -1.9340    1.0563    0.0829 C   0  0  0  0  0  0  0  0  0  0  0  0
   -0.5742    1.2626   -0.1144 C   0  0  0  0  0  0  0  0  0  0  0  0
   -0.1425    2.5395   -0.3546 O   0  0  0  0  0  0  0  0  0  0  0  0
    2.6393   -0.9603    0.7365 H   0  0  0  0  0  0  0  0  0  0  0  0
    3.5943   -0.0439   -0.4353 H   0  0  0  0  0  0  0  0  0  0  0  0
    2.4211   -1.2204   -1.0389 H   0  0  0  0  0  0  0  0  0  0  0  0
    0.5350   -1.9398    0.2185 H   0  0  0  0  0  0  0  0  0  0  0  0
   -1.8629   -2.3062    0.5669 H   0  0  0  0  0  0  0  0  0  0  0  0
   -3.4589   -0.4083    0.4849 H   0  0  0  0  0  0  0  0  0  0  0  0
   -2.6232    1.8943    0.0448 H   0  0  0  0  0  0  0  0  0  0  0  0
    0.8251    2.4587   -0.4617 H   0  0  0  0  0  0  0  0  0  0  0  0
  1  2  1  0
  2  3  1  0
  3  4  2  0
  4  5  1  0
  5  6  2  0
  6  7  1  0
  7  8  2  0
  8  9  1  0
  8  3  1  0
  1 10  1  0
  1 11  1  0
  1 12  1  0
  4 13  1  0
  5 14  1  0
  6 15  1  0
  7 16  1  0
  9 17  1  0
M  END
>  <Energy>  (1) 
19.32351995925083

>  <Real charge>  (1) 
0

>  <Mult>  (1) 
1

$$$$
