mol_758 304
     RDKit          3D

 22 21  0  0  0  0  0  0  0  0999 V2000
    3.6810   -0.1259   -0.0161 C   0  0  0  0  0  0  0  0  0  0  0  0
    2.3371   -0.8183    0.1452 C   0  0  0  0  0  0  0  0  0  0  0  0
    1.1835    0.1839    0.1152 C   0  0  0  0  0  0  0  0  0  0  0  0
   -0.1661   -0.5163    0.2777 C   0  0  0  0  0  0  0  0  0  0  0  0
   -1.3188    0.4847    0.2479 C   0  0  0  0  0  0  0  0  0  0  0  0
   -2.6736   -0.1825    0.4072 C   0  0  0  0  0  0  0  0  0  0  0  0
   -2.8077   -1.3975    0.5442 O   0  0  0  0  0  0  0  0  0  0  0  0
   -3.8699    0.7334    0.3892 C   0  0  0  0  0  0  0  0  0  0  0  0
    3.8509    0.5939    0.7910 H   0  0  0  0  0  0  0  0  0  0  0  0
    4.4915   -0.8610    0.0082 H   0  0  0  0  0  0  0  0  0  0  0  0
    3.7352    0.4081   -0.9702 H   0  0  0  0  0  0  0  0  0  0  0  0
    2.2128   -1.5536   -0.6584 H   0  0  0  0  0  0  0  0  0  0  0  0
    2.3278   -1.3689    1.0931 H   0  0  0  0  0  0  0  0  0  0  0  0
    1.3149    0.9194    0.9183 H   0  0  0  0  0  0  0  0  0  0  0  0
    1.1999    0.7347   -0.8332 H   0  0  0  0  0  0  0  0  0  0  0  0
   -0.2979   -1.2550   -0.5228 H   0  0  0  0  0  0  0  0  0  0  0  0
   -0.1831   -1.0707    1.2244 H   0  0  0  0  0  0  0  0  0  0  0  0
   -1.3198    1.0244   -0.7056 H   0  0  0  0  0  0  0  0  0  0  0  0
   -1.2038    1.2107    1.0603 H   0  0  0  0  0  0  0  0  0  0  0  0
   -3.7961    1.4484    1.2122 H   0  0  0  0  0  0  0  0  0  0  0  0
   -3.9129    1.2608   -0.5669 H   0  0  0  0  0  0  0  0  0  0  0  0
   -4.7852    0.1475    0.5111 H   0  0  0  0  0  0  0  0  0  0  0  0
  1  2  1  0
  2  3  1  0
  3  4  1  0
  4  5  1  0
  5  6  1  0
  6  7  2  0
  6  8  1  0
  1  9  1  0
  1 10  1  0
  1 11  1  0
  2 12  1  0
  2 13  1  0
  3 14  1  0
  3 15  1  0
  4 16  1  0
  4 17  1  0
  5 18  1  0
  5 19  1  0
  8 20  1  0
  8 21  1  0
  8 22  1  0
M  END
>  <Energy>  (1) 
-0.20377260815382933

>  <Real charge>  (1) 
0

>  <Mult>  (1) 
1

$$$$
mol_758 225
     RDKit          3D

 22 21  0  0  0  0  0  0  0  0999 V2000
   -3.3471   -0.5332   -0.5263 C   0  0  0  0  0  0  0  0  0  0  0  0
   -2.3104    0.5339   -0.2131 C   0  0  0  0  0  0  0  0  0  0  0  0
   -0.9286   -0.0781    0.0183 C   0  0  0  0  0  0  0  0  0  0  0  0
    0.1101    1.0018    0.3368 C   0  0  0  0  0  0  0  0  0  0  0  0
    1.4978    0.4176    0.5962 C   0  0  0  0  0  0  0  0  0  0  0  0
    2.2009   -0.0752   -0.6578 C   0  0  0  0  0  0  0  0  0  0  0  0
    1.7890    0.1614   -1.7923 O   0  0  0  0  0  0  0  0  0  0  0  0
    3.4731   -0.8531   -0.4419 C   0  0  0  0  0  0  0  0  0  0  0  0
   -3.0784   -1.0876   -1.4312 H   0  0  0  0  0  0  0  0  0  0  0  0
   -4.3272   -0.0737   -0.6880 H   0  0  0  0  0  0  0  0  0  0  0  0
   -3.4381   -1.2461    0.2995 H   0  0  0  0  0  0  0  0  0  0  0  0
   -2.2670    1.2477   -1.0440 H   0  0  0  0  0  0  0  0  0  0  0  0
   -2.6254    1.0906    0.6771 H   0  0  0  0  0  0  0  0  0  0  0  0
   -0.6270   -0.6411   -0.8724 H   0  0  0  0  0  0  0  0  0  0  0  0
   -0.9795   -0.7932    0.8485 H   0  0  0  0  0  0  0  0  0  0  0  0
    0.1515    1.7323   -0.4800 H   0  0  0  0  0  0  0  0  0  0  0  0
   -0.2098    1.5454    1.2344 H   0  0  0  0  0  0  0  0  0  0  0  0
    2.1362    1.1929    1.0350 H   0  0  0  0  0  0  0  0  0  0  0  0
    1.4295   -0.4115    1.3090 H   0  0  0  0  0  0  0  0  0  0  0  0
    4.2032   -0.2246    0.0739 H   0  0  0  0  0  0  0  0  0  0  0  0
    3.8870   -1.1589   -1.4068 H   0  0  0  0  0  0  0  0  0  0  0  0
    3.2601   -1.7475    0.1487 H   0  0  0  0  0  0  0  0  0  0  0  0
  1  2  1  0
  2  3  1  0
  3  4  1  0
  4  5  1  0
  5  6  1  0
  6  7  2  0
  6  8  1  0
  1  9  1  0
  1 10  1  0
  1 11  1  0
  2 12  1  0
  2 13  1  0
  3 14  1  0
  3 15  1  0
  4 16  1  0
  4 17  1  0
  5 18  1  0
  5 19  1  0
  8 20  1  0
  8 21  1  0
  8 22  1  0
M  END
>  <Energy>  (2) 
-0.1271194800755388

>  <Real charge>  (2) 
0

>  <Mult>  (2) 
1

$$$$
mol_758 138
     RDKit          3D

 22 21  0  0  0  0  0  0  0  0999 V2000
   -3.1980    0.4404    0.2198 C   0  0  0  0  0  0  0  0  0  0  0  0
   -2.1195   -0.4947   -0.3036 C   0  0  0  0  0  0  0  0  0  0  0  0
   -0.7933   -0.2852    0.4278 C   0  0  0  0  0  0  0  0  0  0  0  0
    0.2889   -1.2290   -0.1041 C   0  0  0  0  0  0  0  0  0  0  0  0
    1.6103   -1.0842    0.6443 C   0  0  0  0  0  0  0  0  0  0  0  0
    2.2722    0.2608    0.4217 C   0  0  0  0  0  0  0  0  0  0  0  0
    2.3426    1.0948    1.3246 O   0  0  0  0  0  0  0  0  0  0  0  0
    2.8232    0.5473   -0.9504 C   0  0  0  0  0  0  0  0  0  0  0  0
   -4.1373    0.2735   -0.3166 H   0  0  0  0  0  0  0  0  0  0  0  0
   -3.3807    0.2708    1.2858 H   0  0  0  0  0  0  0  0  0  0  0  0
   -2.9099    1.4875    0.0826 H   0  0  0  0  0  0  0  0  0  0  0  0
   -1.9837   -0.3215   -1.3776 H   0  0  0  0  0  0  0  0  0  0  0  0
   -2.4528   -1.5318   -0.1815 H   0  0  0  0  0  0  0  0  0  0  0  0
   -0.9354   -0.4572    1.5016 H   0  0  0  0  0  0  0  0  0  0  0  0
   -0.4736    0.7565    0.3064 H   0  0  0  0  0  0  0  0  0  0  0  0
   -0.0561   -2.2650    0.0004 H   0  0  0  0  0  0  0  0  0  0  0  0
    0.4372   -1.0514   -1.1756 H   0  0  0  0  0  0  0  0  0  0  0  0
    2.3135   -1.8603    0.3217 H   0  0  0  0  0  0  0  0  0  0  0  0
    1.4589   -1.2242    1.7210 H   0  0  0  0  0  0  0  0  0  0  0  0
    3.4581    1.4370   -0.9107 H   0  0  0  0  0  0  0  0  0  0  0  0
    3.4320   -0.2952   -1.2880 H   0  0  0  0  0  0  0  0  0  0  0  0
    2.0036    0.7256   -1.6498 H   0  0  0  0  0  0  0  0  0  0  0  0
  1  2  1  0
  2  3  1  0
  3  4  1  0
  4  5  1  0
  5  6  1  0
  6  7  2  0
  6  8  1  0
  1  9  1  0
  1 10  1  0
  1 11  1  0
  2 12  1  0
  2 13  1  0
  3 14  1  0
  3 15  1  0
  4 16  1  0
  4 17  1  0
  5 18  1  0
  5 19  1  0
  8 20  1  0
  8 21  1  0
  8 22  1  0
M  END
>  <Energy>  (3) 
0.38367868438074226

>  <Real charge>  (3) 
0

>  <Mult>  (3) 
1

$$$$
mol_758 223
     RDKit          3D

 22 21  0  0  0  0  0  0  0  0999 V2000
   -3.5650   -0.0392    0.1769 C   0  0  0  0  0  0  0  0  0  0  0  0
   -2.2110    0.5837   -0.1234 C   0  0  0  0  0  0  0  0  0  0  0  0
   -1.0888   -0.4512   -0.0460 C   0  0  0  0  0  0  0  0  0  0  0  0
    0.2709    0.1789   -0.3488 C   0  0  0  0  0  0  0  0  0  0  0  0
    1.3897   -0.8531   -0.2695 C   0  0  0  0  0  0  0  0  0  0  0  0
    2.7235   -0.2361   -0.6322 C   0  0  0  0  0  0  0  0  0  0  0  0
    3.1987   -0.3575   -1.7612 O   0  0  0  0  0  0  0  0  0  0  0  0
    3.4275    0.5633    0.4326 C   0  0  0  0  0  0  0  0  0  0  0  0
   -4.3526    0.7184    0.1161 H   0  0  0  0  0  0  0  0  0  0  0  0
   -3.7999   -0.8320   -0.5405 H   0  0  0  0  0  0  0  0  0  0  0  0
   -3.5844   -0.4693    1.1834 H   0  0  0  0  0  0  0  0  0  0  0  0
   -2.2355    1.0325   -1.1233 H   0  0  0  0  0  0  0  0  0  0  0  0
   -2.0212    1.3931    0.5911 H   0  0  0  0  0  0  0  0  0  0  0  0
   -1.0710   -0.8998    0.9548 H   0  0  0  0  0  0  0  0  0  0  0  0
   -1.2860   -1.2606   -0.7595 H   0  0  0  0  0  0  0  0  0  0  0  0
    0.4644    0.9936    0.3594 H   0  0  0  0  0  0  0  0  0  0  0  0
    0.2567    0.6307   -1.3485 H   0  0  0  0  0  0  0  0  0  0  0  0
    1.4624   -1.2855    0.7345 H   0  0  0  0  0  0  0  0  0  0  0  0
    1.2005   -1.6824   -0.9612 H   0  0  0  0  0  0  0  0  0  0  0  0
    4.4220    0.8492    0.0786 H   0  0  0  0  0  0  0  0  0  0  0  0
    3.5418   -0.0441    1.3338 H   0  0  0  0  0  0  0  0  0  0  0  0
    2.8572    1.4675    0.6565 H   0  0  0  0  0  0  0  0  0  0  0  0
  1  2  1  0
  2  3  1  0
  3  4  1  0
  4  5  1  0
  5  6  1  0
  6  7  2  0
  6  8  1  0
  1  9  1  0
  1 10  1  0
  1 11  1  0
  2 12  1  0
  2 13  1  0
  3 14  1  0
  3 15  1  0
  4 16  1  0
  4 17  1  0
  5 18  1  0
  5 19  1  0
  8 20  1  0
  8 21  1  0
  8 22  1  0
M  END
>  <Energy>  (4) 
0.5717039952943223

>  <Real charge>  (4) 
0

>  <Mult>  (4) 
1

$$$$
mol_758 326
     RDKit          3D

 22 21  0  0  0  0  0  0  0  0999 V2000
    3.0679    0.8551    0.4693 C   0  0  0  0  0  0  0  0  0  0  0  0
    2.5910   -0.4571   -0.1336 C   0  0  0  0  0  0  0  0  0  0  0  0
    1.1837   -0.8591    0.3128 C   0  0  0  0  0  0  0  0  0  0  0  0
    0.0953    0.0972   -0.1786 C   0  0  0  0  0  0  0  0  0  0  0  0
   -1.2961   -0.4058    0.2023 C   0  0  0  0  0  0  0  0  0  0  0  0
   -2.4005    0.5241   -0.2687 C   0  0  0  0  0  0  0  0  0  0  0  0
   -2.1798    1.5610   -0.8924 O   0  0  0  0  0  0  0  0  0  0  0  0
   -3.8080    0.1069    0.0705 C   0  0  0  0  0  0  0  0  0  0  0  0
    3.0073    0.8310    1.5619 H   0  0  0  0  0  0  0  0  0  0  0  0
    4.1111    1.0382    0.1920 H   0  0  0  0  0  0  0  0  0  0  0  0
    2.4767    1.7014    0.1077 H   0  0  0  0  0  0  0  0  0  0  0  0
    3.2884   -1.2498    0.1627 H   0  0  0  0  0  0  0  0  0  0  0  0
    2.6315   -0.3923   -1.2272 H   0  0  0  0  0  0  0  0  0  0  0  0
    0.9771   -1.8655   -0.0723 H   0  0  0  0  0  0  0  0  0  0  0  0
    1.1505   -0.9269    1.4071 H   0  0  0  0  0  0  0  0  0  0  0  0
    0.2473    1.0945    0.2500 H   0  0  0  0  0  0  0  0  0  0  0  0
    0.1626    0.2056   -1.2682 H   0  0  0  0  0  0  0  0  0  0  0  0
   -1.4729   -1.3905   -0.2445 H   0  0  0  0  0  0  0  0  0  0  0  0
   -1.3743   -0.4968    1.2914 H   0  0  0  0  0  0  0  0  0  0  0  0
   -4.5153    0.8463   -0.3152 H   0  0  0  0  0  0  0  0  0  0  0  0
   -4.0237   -0.8611   -0.3883 H   0  0  0  0  0  0  0  0  0  0  0  0
   -3.9199    0.0439    1.1557 H   0  0  0  0  0  0  0  0  0  0  0  0
  1  2  1  0
  2  3  1  0
  3  4  1  0
  4  5  1  0
  5  6  1  0
  6  7  2  0
  6  8  1  0
  1  9  1  0
  1 10  1  0
  1 11  1  0
  2 12  1  0
  2 13  1  0
  3 14  1  0
  3 15  1  0
  4 16  1  0
  4 17  1  0
  5 18  1  0
  5 19  1  0
  8 20  1  0
  8 21  1  0
  8 22  1  0
M  END
>  <Energy>  (5) 
0.6172024696105516

>  <Real charge>  (5) 
0

>  <Mult>  (5) 
1

$$$$
mol_758 66
     RDKit          3D

 22 21  0  0  0  0  0  0  0  0999 V2000
   -3.3415    0.7835   -0.4917 C   0  0  0  0  0  0  0  0  0  0  0  0
   -1.9293    0.2979   -0.7813 C   0  0  0  0  0  0  0  0  0  0  0  0
   -1.3272   -0.4180    0.4284 C   0  0  0  0  0  0  0  0  0  0  0  0
    0.0517   -1.0228    0.1520 C   0  0  0  0  0  0  0  0  0  0  0  0
    1.1276    0.0239   -0.1317 C   0  0  0  0  0  0  0  0  0  0  0  0
    2.5106   -0.5892   -0.2724 C   0  0  0  0  0  0  0  0  0  0  0  0
    2.7123   -1.8015   -0.2232 O   0  0  0  0  0  0  0  0  0  0  0  0
    3.6453    0.3781   -0.4902 C   0  0  0  0  0  0  0  0  0  0  0  0
   -3.3502    1.4856    0.3481 H   0  0  0  0  0  0  0  0  0  0  0  0
   -4.0023   -0.0542   -0.2468 H   0  0  0  0  0  0  0  0  0  0  0  0
   -3.7531    1.2955   -1.3671 H   0  0  0  0  0  0  0  0  0  0  0  0
   -1.9520   -0.3796   -1.6425 H   0  0  0  0  0  0  0  0  0  0  0  0
   -1.3134    1.1597   -1.0595 H   0  0  0  0  0  0  0  0  0  0  0  0
   -1.2613    0.2762    1.2751 H   0  0  0  0  0  0  0  0  0  0  0  0
   -2.0001   -1.2279    0.7367 H   0  0  0  0  0  0  0  0  0  0  0  0
    0.3472   -1.6160    1.0268 H   0  0  0  0  0  0  0  0  0  0  0  0
   -0.0142   -1.7254   -0.6882 H   0  0  0  0  0  0  0  0  0  0  0  0
    1.1646    0.7502    0.6877 H   0  0  0  0  0  0  0  0  0  0  0  0
    0.9092    0.5554   -1.0634 H   0  0  0  0  0  0  0  0  0  0  0  0
    3.4780    0.9366   -1.4143 H   0  0  0  0  0  0  0  0  0  0  0  0
    3.7109    1.0630    0.3587 H   0  0  0  0  0  0  0  0  0  0  0  0
    4.5873   -0.1709   -0.5742 H   0  0  0  0  0  0  0  0  0  0  0  0
  1  2  1  0
  2  3  1  0
  3  4  1  0
  4  5  1  0
  5  6  1  0
  6  7  2  0
  6  8  1  0
  1  9  1  0
  1 10  1  0
  1 11  1  0
  2 12  1  0
  2 13  1  0
  3 14  1  0
  3 15  1  0
  4 16  1  0
  4 17  1  0
  5 18  1  0
  5 19  1  0
  8 20  1  0
  8 21  1  0
  8 22  1  0
M  END
>  <Energy>  (6) 
0.6323063670067282

>  <Real charge>  (6) 
0

>  <Mult>  (6) 
1

$$$$
mol_758 360
     RDKit          3D

 22 21  0  0  0  0  0  0  0  0999 V2000
   -2.8989    0.6907   -0.7883 C   0  0  0  0  0  0  0  0  0  0  0  0
   -2.4457   -0.1955    0.3617 C   0  0  0  0  0  0  0  0  0  0  0  0
   -0.9337   -0.1635    0.5973 C   0  0  0  0  0  0  0  0  0  0  0  0
   -0.1289   -0.7692   -0.5578 C   0  0  0  0  0  0  0  0  0  0  0  0
    1.3667   -0.8395   -0.2494 C   0  0  0  0  0  0  0  0  0  0  0  0
    2.0644    0.5102   -0.2837 C   0  0  0  0  0  0  0  0  0  0  0  0
    1.5309    1.5279   -0.7224 O   0  0  0  0  0  0  0  0  0  0  0  0
    3.4835    0.5357    0.2221 C   0  0  0  0  0  0  0  0  0  0  0  0
   -2.5553    1.7207   -0.6499 H   0  0  0  0  0  0  0  0  0  0  0  0
   -2.5233    0.3260   -1.7486 H   0  0  0  0  0  0  0  0  0  0  0  0
   -3.9922    0.7031   -0.8441 H   0  0  0  0  0  0  0  0  0  0  0  0
   -2.7745   -1.2255    0.1808 H   0  0  0  0  0  0  0  0  0  0  0  0
   -2.9465    0.1404    1.2776 H   0  0  0  0  0  0  0  0  0  0  0  0
   -0.7197   -0.7258    1.5147 H   0  0  0  0  0  0  0  0  0  0  0  0
   -0.6172    0.8696    0.7812 H   0  0  0  0  0  0  0  0  0  0  0  0
   -0.4914   -1.7874   -0.7453 H   0  0  0  0  0  0  0  0  0  0  0  0
   -0.2909   -0.1970   -1.4778 H   0  0  0  0  0  0  0  0  0  0  0  0
    1.5273   -1.2928    0.7349 H   0  0  0  0  0  0  0  0  0  0  0  0
    1.8573   -1.4707   -0.9992 H   0  0  0  0  0  0  0  0  0  0  0  0
    3.8810    1.5523    0.1552 H   0  0  0  0  0  0  0  0  0  0  0  0
    4.1014   -0.1274   -0.3882 H   0  0  0  0  0  0  0  0  0  0  0  0
    3.5059    0.2175    1.2672 H   0  0  0  0  0  0  0  0  0  0  0  0
  1  2  1  0
  2  3  1  0
  3  4  1  0
  4  5  1  0
  5  6  1  0
  6  7  2  0
  6  8  1  0
  1  9  1  0
  1 10  1  0
  1 11  1  0
  2 12  1  0
  2 13  1  0
  3 14  1  0
  3 15  1  0
  4 16  1  0
  4 17  1  0
  5 18  1  0
  5 19  1  0
  8 20  1  0
  8 21  1  0
  8 22  1  0
M  END
>  <Energy>  (7) 
0.6670595095829789

>  <Real charge>  (7) 
0

>  <Mult>  (7) 
1

$$$$
mol_758 260
     RDKit          3D

 22 21  0  0  0  0  0  0  0  0999 V2000
   -3.2292   -0.1905    0.5815 C   0  0  0  0  0  0  0  0  0  0  0  0
   -2.2993    0.2899   -0.5219 C   0  0  0  0  0  0  0  0  0  0  0  0
   -0.8744   -0.2564   -0.4033 C   0  0  0  0  0  0  0  0  0  0  0  0
   -0.1369    0.2419    0.8444 C   0  0  0  0  0  0  0  0  0  0  0  0
    1.3137   -0.2382    0.8912 C   0  0  0  0  0  0  0  0  0  0  0  0
    2.2308    0.4809   -0.0844 C   0  0  0  0  0  0  0  0  0  0  0  0
    1.8904    1.4867   -0.7050 O   0  0  0  0  0  0  0  0  0  0  0  0
    3.6181   -0.0883   -0.2319 C   0  0  0  0  0  0  0  0  0  0  0  0
   -2.9300    0.2017    1.5578 H   0  0  0  0  0  0  0  0  0  0  0  0
   -4.2507    0.1518    0.3868 H   0  0  0  0  0  0  0  0  0  0  0  0
   -3.2431   -1.2836    0.6358 H   0  0  0  0  0  0  0  0  0  0  0  0
   -2.2790    1.3859   -0.5305 H   0  0  0  0  0  0  0  0  0  0  0  0
   -2.7126   -0.0266   -1.4870 H   0  0  0  0  0  0  0  0  0  0  0  0
   -0.3222    0.0419   -1.3021 H   0  0  0  0  0  0  0  0  0  0  0  0
   -0.9016   -1.3529   -0.4016 H   0  0  0  0  0  0  0  0  0  0  0  0
   -0.6457   -0.1357    1.7387 H   0  0  0  0  0  0  0  0  0  0  0  0
   -0.1769    1.3366    0.8902 H   0  0  0  0  0  0  0  0  0  0  0  0
    1.3604   -1.3140    0.6896 H   0  0  0  0  0  0  0  0  0  0  0  0
    1.7166   -0.0611    1.8950 H   0  0  0  0  0  0  0  0  0  0  0  0
    3.5553   -1.1189   -0.5896 H   0  0  0  0  0  0  0  0  0  0  0  0
    4.1841    0.5022   -0.9578 H   0  0  0  0  0  0  0  0  0  0  0  0
    4.1324   -0.0532    0.7316 H   0  0  0  0  0  0  0  0  0  0  0  0
  1  2  1  0
  2  3  1  0
  3  4  1  0
  4  5  1  0
  5  6  1  0
  6  7  2  0
  6  8  1  0
  1  9  1  0
  1 10  1  0
  1 11  1  0
  2 12  1  0
  2 13  1  0
  3 14  1  0
  3 15  1  0
  4 16  1  0
  4 17  1  0
  5 18  1  0
  5 19  1  0
  8 20  1  0
  8 21  1  0
  8 22  1  0
M  END
>  <Energy>  (8) 
0.7425262762648308

>  <Real charge>  (8) 
0

>  <Mult>  (8) 
1

$$$$
