mol_108 96
     RDKit          3D

 15 15  0  0  0  0  0  0  0  0999 V2000
   -2.2133   -0.2175    0.1065 C   0  0  0  0  0  0  0  0  0  0  0  0
   -0.7370   -0.0101    0.0334 C   0  0  0  0  0  0  0  0  0  0  0  0
   -0.1399    1.1863   -0.0337 C   0  0  0  0  0  0  0  0  0  0  0  0
    1.2201    1.3003   -0.0985 N   0  0  0  0  0  0  0  0  0  0  0  0
    2.0721    0.2304   -0.1006 C   0  0  0  0  0  0  0  0  0  0  0  0
    3.2889    0.3694   -0.1597 O   0  0  0  0  0  0  0  0  0  0  0  0
    1.4767   -0.9958   -0.0326 N   0  0  0  0  0  0  0  0  0  0  0  0
    0.1296   -1.2197    0.0353 C   0  0  0  0  0  0  0  0  0  0  0  0
   -0.3402   -2.3511    0.0945 O   0  0  0  0  0  0  0  0  0  0  0  0
   -2.4818   -0.7465    1.0267 H   0  0  0  0  0  0  0  0  0  0  0  0
   -2.7568    0.7333    0.0988 H   0  0  0  0  0  0  0  0  0  0  0  0
   -2.5613   -0.8063   -0.7485 H   0  0  0  0  0  0  0  0  0  0  0  0
   -0.6990    2.1171   -0.0400 H   0  0  0  0  0  0  0  0  0  0  0  0
    1.6607    2.2120   -0.1489 H   0  0  0  0  0  0  0  0  0  0  0  0
    2.0811   -1.8017   -0.0325 H   0  0  0  0  0  0  0  0  0  0  0  0
  1  2  1  0
  2  3  2  0
  3  4  1  0
  4  5  1  0
  5  6  2  0
  5  7  1  0
  7  8  1  0
  8  9  2  0
  8  2  1  0
  1 10  1  0
  1 11  1  0
  1 12  1  0
  3 13  1  0
  4 14  1  0
  7 15  1  0
M  END
>  <Energy>  (1) 
-94.67071537824063

>  <Real charge>  (1) 
0

>  <Mult>  (1) 
1

$$$$
