mol_64 98
     RDKit          3D

 15 15  0  0  0  0  0  0  0  0999 V2000
    2.4830    0.1840    0.6582 N   0  0  0  0  0  0  0  0  0  0  0  0
    1.1549    0.0621    0.2336 C   0  0  0  0  0  0  0  0  0  0  0  0
    0.3087    1.1755    0.2406 C   0  0  0  0  0  0  0  0  0  0  0  0
   -1.0490    1.0456   -0.0674 C   0  0  0  0  0  0  0  0  0  0  0  0
   -1.5680   -0.2142   -0.3424 C   0  0  0  0  0  0  0  0  0  0  0  0
   -2.8850   -0.3909   -0.6454 O   0  0  0  0  0  0  0  0  0  0  0  0
   -0.7557   -1.3393   -0.2975 C   0  0  0  0  0  0  0  0  0  0  0  0
    0.5995   -1.2013    0.0123 C   0  0  0  0  0  0  0  0  0  0  0  0
    3.0849   -0.5678    0.3370 H   0  0  0  0  0  0  0  0  0  0  0  0
    2.8861    1.0997    0.4882 H   0  0  0  0  0  0  0  0  0  0  0  0
    0.7026    2.1578    0.4872 H   0  0  0  0  0  0  0  0  0  0  0  0
   -1.6784    1.9292   -0.0728 H   0  0  0  0  0  0  0  0  0  0  0  0
   -3.3257    0.4740   -0.6218 H   0  0  0  0  0  0  0  0  0  0  0  0
   -1.1758   -2.3224   -0.4877 H   0  0  0  0  0  0  0  0  0  0  0  0
    1.2180   -2.0921    0.0778 H   0  0  0  0  0  0  0  0  0  0  0  0
  1  2  1  0
  2  3  2  0
  3  4  1  0
  4  5  2  0
  5  6  1  0
  5  7  1  0
  7  8  2  0
  8  2  1  0
  1  9  1  0
  1 10  1  0
  3 11  1  0
  4 12  1  0
  6 13  1  0
  7 14  1  0
  8 15  1  0
M  END
>  <Energy>  (1) 
-5.100068326783735

>  <Real charge>  (1) 
0

>  <Mult>  (1) 
1

$$$$
