mol_324 128
     RDKit          3D

 29 30  0  0  0  0  0  0  0  0999 V2000
   -2.3869    2.0493   -0.4213 C   0  0  0  0  0  0  0  0  0  0  0  0
   -0.9016    1.6972   -0.3466 C   0  0  0  0  0  0  0  0  0  0  0  0
   -0.5901    0.2048   -0.0428 C   0  0  0  0  0  0  0  0  0  0  0  0
   -1.1878   -0.2039    1.3120 C   0  0  0  0  0  0  0  0  0  0  0  0
   -1.4211    0.5798    2.2315 O   0  0  0  0  0  0  0  0  0  0  0  0
   -1.4159   -1.5415    1.4917 N   0  0  0  0  0  0  0  0  0  0  0  0
   -1.7249   -2.3962    0.4831 C   0  0  0  0  0  0  0  0  0  0  0  0
   -2.3448   -3.4338    0.6925 O   0  0  0  0  0  0  0  0  0  0  0  0
   -1.4112   -2.0025   -0.7778 N   0  0  0  0  0  0  0  0  0  0  0  0
   -1.1827   -0.7006   -1.1333 C   0  0  0  0  0  0  0  0  0  0  0  0
   -1.4116   -0.3379   -2.2865 O   0  0  0  0  0  0  0  0  0  0  0  0
    0.9587    0.0670   -0.0116 C   0  0  0  0  0  0  0  0  0  0  0  0
    1.6861    0.2756    1.1766 C   0  0  0  0  0  0  0  0  0  0  0  0
    3.0792    0.1677    1.1997 C   0  0  0  0  0  0  0  0  0  0  0  0
    3.7773   -0.1322    0.0348 C   0  0  0  0  0  0  0  0  0  0  0  0
    3.0842   -0.3111   -1.1576 C   0  0  0  0  0  0  0  0  0  0  0  0
    1.6910   -0.2039   -1.1840 C   0  0  0  0  0  0  0  0  0  0  0  0
   -2.8987    1.4970   -1.2139 H   0  0  0  0  0  0  0  0  0  0  0  0
   -2.9024    1.8496    0.5220 H   0  0  0  0  0  0  0  0  0  0  0  0
   -2.5015    3.1166   -0.6383 H   0  0  0  0  0  0  0  0  0  0  0  0
   -0.4438    2.3381    0.4192 H   0  0  0  0  0  0  0  0  0  0  0  0
   -0.4402    1.9889   -1.2999 H   0  0  0  0  0  0  0  0  0  0  0  0
   -1.8062   -1.7950    2.3895 H   0  0  0  0  0  0  0  0  0  0  0  0
   -1.7980   -2.5865   -1.5071 H   0  0  0  0  0  0  0  0  0  0  0  0
    1.1875    0.5421    2.1074 H   0  0  0  0  0  0  0  0  0  0  0  0
    3.6196    0.3293    2.1294 H   0  0  0  0  0  0  0  0  0  0  0  0
    4.8611   -0.2111    0.0531 H   0  0  0  0  0  0  0  0  0  0  0  0
    3.6284   -0.5246   -2.0745 H   0  0  0  0  0  0  0  0  0  0  0  0
    1.1964   -0.3220   -2.1470 H   0  0  0  0  0  0  0  0  0  0  0  0
  1  2  1  0
  2  3  1  0
  3  4  1  0
  4  5  2  0
  4  6  1  0
  6  7  1  0
  7  8  2  0
  7  9  1  0
  9 10  1  0
 10 11  2  0
  3 12  1  0
 12 13  2  0
 13 14  1  0
 14 15  2  0
 15 16  1  0
 16 17  2  0
 10  3  1  0
 17 12  1  0
  1 18  1  0
  1 19  1  0
  1 20  1  0
  2 21  1  0
  2 22  1  0
  6 23  1  0
  9 24  1  0
 13 25  1  0
 14 26  1  0
 15 27  1  0
 16 28  1  0
 17 29  1  0
M  END
>  <Energy>  (1) 
-76.16149443553964

>  <Real charge>  (1) 
0

>  <Mult>  (1) 
1

$$$$
mol_324 336
     RDKit          3D

 29 30  0  0  0  0  0  0  0  0999 V2000
   -0.1974    2.5806   -1.0316 C   0  0  0  0  0  0  0  0  0  0  0  0
   -0.5166    1.2116   -1.6302 C   0  0  0  0  0  0  0  0  0  0  0  0
   -0.6342    0.0272   -0.6260 C   0  0  0  0  0  0  0  0  0  0  0  0
   -0.7292   -1.2867   -1.4302 C   0  0  0  0  0  0  0  0  0  0  0  0
   -0.3736   -1.4163   -2.6002 O   0  0  0  0  0  0  0  0  0  0  0  0
   -1.2230   -2.3653   -0.7455 N   0  0  0  0  0  0  0  0  0  0  0  0
   -2.2083   -2.2493    0.1819 C   0  0  0  0  0  0  0  0  0  0  0  0
   -2.9869   -3.1706    0.4054 O   0  0  0  0  0  0  0  0  0  0  0  0
   -2.3698   -1.0320    0.7636 N   0  0  0  0  0  0  0  0  0  0  0  0
   -1.9404    0.1310    0.1783 C   0  0  0  0  0  0  0  0  0  0  0  0
   -2.5883    1.1626    0.3389 O   0  0  0  0  0  0  0  0  0  0  0  0
    0.6172   -0.0221    0.2820 C   0  0  0  0  0  0  0  0  0  0  0  0
    0.5887    0.4245    1.6160 C   0  0  0  0  0  0  0  0  0  0  0  0
    1.7359    0.3813    2.4129 C   0  0  0  0  0  0  0  0  0  0  0  0
    2.9347   -0.0948    1.8911 C   0  0  0  0  0  0  0  0  0  0  0  0
    2.9922   -0.5187    0.5675 C   0  0  0  0  0  0  0  0  0  0  0  0
    1.8480   -0.4766   -0.2319 C   0  0  0  0  0  0  0  0  0  0  0  0
    0.8046    2.6037   -0.5928 H   0  0  0  0  0  0  0  0  0  0  0  0
   -0.9165    2.8788   -0.2655 H   0  0  0  0  0  0  0  0  0  0  0  0
   -0.2217    3.3405   -1.8201 H   0  0  0  0  0  0  0  0  0  0  0  0
    0.2632    0.9993   -2.3740 H   0  0  0  0  0  0  0  0  0  0  0  0
   -1.4538    1.2947   -2.1973 H   0  0  0  0  0  0  0  0  0  0  0  0
   -1.2692   -3.2217   -1.2818 H   0  0  0  0  0  0  0  0  0  0  0  0
   -3.2282   -0.9472    1.2921 H   0  0  0  0  0  0  0  0  0  0  0  0
   -0.3169    0.8324    2.0612 H   0  0  0  0  0  0  0  0  0  0  0  0
    1.6943    0.7302    3.4420 H   0  0  0  0  0  0  0  0  0  0  0  0
    3.8264   -0.1236    2.5119 H   0  0  0  0  0  0  0  0  0  0  0  0
    3.9313   -0.8762    0.1521 H   0  0  0  0  0  0  0  0  0  0  0  0
    1.9379   -0.7973   -1.2696 H   0  0  0  0  0  0  0  0  0  0  0  0
  1  2  1  0
  2  3  1  0
  3  4  1  0
  4  5  2  0
  4  6  1  0
  6  7  1  0
  7  8  2  0
  7  9  1  0
  9 10  1  0
 10 11  2  0
  3 12  1  0
 12 13  2  0
 13 14  1  0
 14 15  2  0
 15 16  1  0
 16 17  2  0
 10  3  1  0
 17 12  1  0
  1 18  1  0
  1 19  1  0
  1 20  1  0
  2 21  1  0
  2 22  1  0
  6 23  1  0
  9 24  1  0
 13 25  1  0
 14 26  1  0
 15 27  1  0
 16 28  1  0
 17 29  1  0
M  END
>  <Energy>  (2) 
-75.27751631070029

>  <Real charge>  (2) 
0

>  <Mult>  (2) 
1

$$$$
