mol_1049 152
     RDKit          3D

 16 16  0  0  0  0  0  0  0  0999 V2000
    2.6986    0.5898    0.3539 N   0  0  0  0  0  0  0  0  0  0  0  0
    1.8656    0.0646   -0.5959 C   0  0  0  0  0  0  0  0  0  0  0  0
    2.3132   -0.3543   -1.6558 O   0  0  0  0  0  0  0  0  0  0  0  0
    0.4165   -0.0154   -0.2699 C   0  0  0  0  0  0  0  0  0  0  0  0
   -0.1783    0.8122    0.6913 C   0  0  0  0  0  0  0  0  0  0  0  0
   -1.5447    0.6993    0.9613 C   0  0  0  0  0  0  0  0  0  0  0  0
   -2.3202   -0.2322    0.2708 C   0  0  0  0  0  0  0  0  0  0  0  0
   -1.7356   -1.0483   -0.6968 C   0  0  0  0  0  0  0  0  0  0  0  0
   -0.3711   -0.9379   -0.9703 C   0  0  0  0  0  0  0  0  0  0  0  0
    2.4234    0.6629    1.3223 H   0  0  0  0  0  0  0  0  0  0  0  0
    3.6885    0.5067    0.1591 H   0  0  0  0  0  0  0  0  0  0  0  0
    0.3982    1.5661    1.2185 H   0  0  0  0  0  0  0  0  0  0  0  0
   -2.0076    1.3448    1.7038 H   0  0  0  0  0  0  0  0  0  0  0  0
   -3.3839   -0.3162    0.4802 H   0  0  0  0  0  0  0  0  0  0  0  0
   -2.3412   -1.7681   -1.2420 H   0  0  0  0  0  0  0  0  0  0  0  0
    0.0787   -1.5740   -1.7304 H   0  0  0  0  0  0  0  0  0  0  0  0
  1  2  1  0
  2  3  2  0
  2  4  1  0
  4  5  2  0
  5  6  1  0
  6  7  2  0
  7  8  1  0
  8  9  2  0
  9  4  1  0
  1 10  1  0
  1 11  1  0
  5 12  1  0
  6 13  1  0
  7 14  1  0
  8 15  1  0
  9 16  1  0
M  END
>  <Energy>  (1) 
4.513571335394296

>  <Real charge>  (1) 
0

>  <Mult>  (1) 
1

$$$$
