mol_913 38
     RDKit          3D

 18 18  0  0  0  0  0  0  0  0999 V2000
   -3.1900   -0.1695    0.1352 C   0  0  0  0  0  0  0  0  0  0  0  0
   -2.1969    0.8312    0.3233 O   0  0  0  0  0  0  0  0  0  0  0  0
   -0.8935    0.4448    0.1765 C   0  0  0  0  0  0  0  0  0  0  0  0
   -0.4487   -0.8402   -0.1407 C   0  0  0  0  0  0  0  0  0  0  0  0
    0.9210   -1.0990   -0.2609 C   0  0  0  0  0  0  0  0  0  0  0  0
    1.8464   -0.0712   -0.0635 C   0  0  0  0  0  0  0  0  0  0  0  0
    3.2929   -0.3383   -0.1890 C   0  0  0  0  0  0  0  0  0  0  0  0
    3.7290   -1.4488   -0.4654 O   0  0  0  0  0  0  0  0  0  0  0  0
    1.4111    1.2158    0.2537 C   0  0  0  0  0  0  0  0  0  0  0  0
    0.0419    1.4668    0.3721 C   0  0  0  0  0  0  0  0  0  0  0  0
   -3.0865   -0.9719    0.8731 H   0  0  0  0  0  0  0  0  0  0  0  0
   -3.1639   -0.5644   -0.8858 H   0  0  0  0  0  0  0  0  0  0  0  0
   -4.1679    0.2976    0.2864 H   0  0  0  0  0  0  0  0  0  0  0  0
   -1.1378   -1.6629   -0.3010 H   0  0  0  0  0  0  0  0  0  0  0  0
    1.2617   -2.1027   -0.5084 H   0  0  0  0  0  0  0  0  0  0  0  0
    3.9682    0.5173   -0.0205 H   0  0  0  0  0  0  0  0  0  0  0  0
    2.1166    2.0270    0.4106 H   0  0  0  0  0  0  0  0  0  0  0  0
   -0.3038    2.4684    0.6193 H   0  0  0  0  0  0  0  0  0  0  0  0
  1  2  1  0
  2  3  1  0
  3  4  2  0
  4  5  1  0
  5  6  2  0
  6  7  1  0
  7  8  2  0
  6  9  1  0
  9 10  2  0
 10  3  1  0
  1 11  1  0
  1 12  1  0
  1 13  1  0
  4 14  1  0
  5 15  1  0
  7 16  1  0
  9 17  1  0
 10 18  1  0
M  END
>  <Energy>  (1) 
34.38901111095002

>  <Real charge>  (1) 
0

>  <Mult>  (1) 
1

$$$$
mol_913 156
     RDKit          3D

 18 18  0  0  0  0  0  0  0  0999 V2000
    3.1820   -0.3135    0.0254 C   0  0  0  0  0  0  0  0  0  0  0  0
    2.2389    0.7316    0.2263 O   0  0  0  0  0  0  0  0  0  0  0  0
    0.9159    0.4046    0.1156 C   0  0  0  0  0  0  0  0  0  0  0  0
    0.4047   -0.8621   -0.1767 C   0  0  0  0  0  0  0  0  0  0  0  0
   -0.9785   -1.0616   -0.2612 C   0  0  0  0  0  0  0  0  0  0  0  0
   -1.8498    0.0103   -0.0524 C   0  0  0  0  0  0  0  0  0  0  0  0
   -3.3070   -0.2102   -0.1437 C   0  0  0  0  0  0  0  0  0  0  0  0
   -4.1167    0.6919    0.0297 O   0  0  0  0  0  0  0  0  0  0  0  0
   -1.3470    1.2785    0.2400 C   0  0  0  0  0  0  0  0  0  0  0  0
    0.0337    1.4699    0.3227 C   0  0  0  0  0  0  0  0  0  0  0  0
    4.1830    0.1113    0.1480 H   0  0  0  0  0  0  0  0  0  0  0  0
    3.0612   -1.1032    0.7743 H   0  0  0  0  0  0  0  0  0  0  0  0
    3.1134   -0.7171   -0.9901 H   0  0  0  0  0  0  0  0  0  0  0  0
    1.0551   -1.7146   -0.3440 H   0  0  0  0  0  0  0  0  0  0  0  0
   -1.3587   -2.0540   -0.4896 H   0  0  0  0  0  0  0  0  0  0  0  0
   -3.6353   -1.2367   -0.3781 H   0  0  0  0  0  0  0  0  0  0  0  0
   -2.0213    2.1164    0.4034 H   0  0  0  0  0  0  0  0  0  0  0  0
    0.4264    2.4584    0.5506 H   0  0  0  0  0  0  0  0  0  0  0  0
  1  2  1  0
  2  3  1  0
  3  4  2  0
  4  5  1  0
  5  6  2  0
  6  7  1  0
  7  8  2  0
  6  9  1  0
  9 10  2  0
 10  3  1  0
  1 11  1  0
  1 12  1  0
  1 13  1  0
  4 14  1  0
  5 15  1  0
  7 16  1  0
  9 17  1  0
 10 18  1  0
M  END
>  <Energy>  (2) 
34.8383164332912

>  <Real charge>  (2) 
0

>  <Mult>  (2) 
1

$$$$
