mol_66 288
     RDKit          3D

 45 48  0  0  0  0  0  0  0  0999 V2000
   -1.8159    3.0256   -0.9669 O   0  0  0  0  0  0  0  0  0  0  0  0
   -2.4606    1.8362   -0.6610 C   0  0  0  0  0  0  0  0  0  0  0  0
   -1.7766    0.7251   -0.3403 C   0  0  0  0  0  0  0  0  0  0  0  0
   -0.2543    0.6912   -0.2898 C   0  0  0  0  0  0  0  0  0  0  0  0
    0.2880    0.4055    1.1227 C   0  0  0  0  0  0  0  0  0  0  0  0
    1.8175    0.4299    1.1512 C   0  0  0  0  0  0  0  0  0  0  0  0
    2.4153   -0.5391    0.1172 C   0  0  0  0  0  0  0  0  0  0  0  0
    1.8838   -0.2349   -1.2937 C   0  0  0  0  0  0  0  0  0  0  0  0
    0.3547   -0.2625   -1.3340 C   0  0  0  0  0  0  0  0  0  0  0  0
    3.9345   -0.5400    0.1586 C   0  0  0  0  0  0  0  0  0  0  0  0
    4.6817    0.6120   -0.1343 C   0  0  0  0  0  0  0  0  0  0  0  0
    6.0780    0.5872   -0.0896 C   0  0  0  0  0  0  0  0  0  0  0  0
    6.7391   -0.5904    0.2485 C   0  0  0  0  0  0  0  0  0  0  0  0
    8.4586   -0.6210    0.3035 Cl  0  0  0  0  0  0  0  0  0  0  0  0
    6.0162   -1.7431    0.5423 C   0  0  0  0  0  0  0  0  0  0  0  0
    4.6199   -1.7175    0.4974 C   0  0  0  0  0  0  0  0  0  0  0  0
   -2.5300   -0.5258   -0.0206 C   0  0  0  0  0  0  0  0  0  0  0  0
   -1.9577   -1.5678    0.2782 O   0  0  0  0  0  0  0  0  0  0  0  0
   -4.0065   -0.5030   -0.0669 C   0  0  0  0  0  0  0  0  0  0  0  0
   -4.7278   -1.6680    0.2303 C   0  0  0  0  0  0  0  0  0  0  0  0
   -6.1237   -1.6595    0.1902 C   0  0  0  0  0  0  0  0  0  0  0  0
   -6.8051   -0.4906   -0.1461 C   0  0  0  0  0  0  0  0  0  0  0  0
   -6.0914    0.6709   -0.4426 C   0  0  0  0  0  0  0  0  0  0  0  0
   -4.6910    0.6599   -0.4016 C   0  0  0  0  0  0  0  0  0  0  0  0
   -3.9452    1.8828   -0.7139 C   0  0  0  0  0  0  0  0  0  0  0  0
   -4.4976    2.9367   -1.0154 O   0  0  0  0  0  0  0  0  0  0  0  0
   -2.5352    3.6663   -1.1606 H   0  0  0  0  0  0  0  0  0  0  0  0
    0.1210    1.6907   -0.5514 H   0  0  0  0  0  0  0  0  0  0  0  0
   -0.0962    1.1517    1.8291 H   0  0  0  0  0  0  0  0  0  0  0  0
   -0.0485   -0.5721    1.4851 H   0  0  0  0  0  0  0  0  0  0  0  0
    2.1586    1.4559    0.9635 H   0  0  0  0  0  0  0  0  0  0  0  0
    2.1641    0.1663    2.1583 H   0  0  0  0  0  0  0  0  0  0  0  0
    2.0681   -1.5482    0.3821 H   0  0  0  0  0  0  0  0  0  0  0  0
    2.2291    0.7496   -1.6340 H   0  0  0  0  0  0  0  0  0  0  0  0
    2.2772   -0.9670   -2.0100 H   0  0  0  0  0  0  0  0  0  0  0  0
    0.0170    0.0184   -2.3393 H   0  0  0  0  0  0  0  0  0  0  0  0
    0.0235   -1.2936   -1.1684 H   0  0  0  0  0  0  0  0  0  0  0  0
    4.1832    1.5415   -0.4005 H   0  0  0  0  0  0  0  0  0  0  0  0
    6.6404    1.4880   -0.3193 H   0  0  0  0  0  0  0  0  0  0  0  0
    6.5297   -2.6634    0.8064 H   0  0  0  0  0  0  0  0  0  0  0  0
    4.0701   -2.6275    0.7299 H   0  0  0  0  0  0  0  0  0  0  0  0
   -4.2058   -2.5866    0.4943 H   0  0  0  0  0  0  0  0  0  0  0  0
   -6.6786   -2.5664    0.4217 H   0  0  0  0  0  0  0  0  0  0  0  0
   -7.8926   -0.4840   -0.1774 H   0  0  0  0  0  0  0  0  0  0  0  0
   -6.6287    1.5809   -0.7046 H   0  0  0  0  0  0  0  0  0  0  0  0
  1  2  1  0
  2  3  2  0
  3  4  1  0
  4  5  1  0
  5  6  1  0
  6  7  1  0
  7  8  1  0
  8  9  1  0
  7 10  1  0
 10 11  2  0
 11 12  1  0
 12 13  2  0
 13 14  1  0
 13 15  1  0
 15 16  2  0
  3 17  1  0
 17 18  2  0
 17 19  1  0
 19 20  2  0
 20 21  1  0
 21 22  2  0
 22 23  1  0
 23 24  2  0
 24 25  1  0
 25 26  2  0
  9  4  1  0
 16 10  1  0
 24 19  1  0
 25  2  1  0
  1 27  1  0
  4 28  1  0
  5 29  1  0
  5 30  1  0
  6 31  1  0
  6 32  1  0
  7 33  1  0
  8 34  1  0
  8 35  1  0
  9 36  1  0
  9 37  1  0
 11 38  1  0
 12 39  1  0
 15 40  1  0
 16 41  1  0
 20 42  1  0
 21 43  1  0
 22 44  1  0
 23 45  1  0
M  END
>  <Energy>  (1) 
76.59633142751022

>  <Real charge>  (1) 
0

>  <Mult>  (1) 
1

$$$$
mol_66 102
     RDKit          3D

 45 48  0  0  0  0  0  0  0  0999 V2000
    1.4169    0.3444    2.4884 O   0  0  0  0  0  0  0  0  0  0  0  0
    2.2663    0.0757    1.4267 C   0  0  0  0  0  0  0  0  0  0  0  0
    1.8056   -0.1134    0.1788 C   0  0  0  0  0  0  0  0  0  0  0  0
    0.3356   -0.0594   -0.2226 C   0  0  0  0  0  0  0  0  0  0  0  0
   -0.5025   -1.1596    0.4550 C   0  0  0  0  0  0  0  0  0  0  0  0
   -1.9621   -1.1126   -0.0008 C   0  0  0  0  0  0  0  0  0  0  0  0
   -2.5797    0.2770    0.2300 C   0  0  0  0  0  0  0  0  0  0  0  0
   -1.7462    1.3720   -0.4570 C   0  0  0  0  0  0  0  0  0  0  0  0
   -0.2859    1.3325   -0.0026 C   0  0  0  0  0  0  0  0  0  0  0  0
   -4.0364    0.3246   -0.2002 C   0  0  0  0  0  0  0  0  0  0  0  0
   -4.4187    0.1128   -1.5345 C   0  0  0  0  0  0  0  0  0  0  0  0
   -5.7644    0.1612   -1.9075 C   0  0  0  0  0  0  0  0  0  0  0  0
   -6.7395    0.4220   -0.9488 C   0  0  0  0  0  0  0  0  0  0  0  0
   -8.3967    0.4817   -1.4077 Cl  0  0  0  0  0  0  0  0  0  0  0  0
   -6.3807    0.6347    0.3793 C   0  0  0  0  0  0  0  0  0  0  0  0
   -5.0348    0.5861    0.7515 C   0  0  0  0  0  0  0  0  0  0  0  0
    2.7793   -0.3999   -0.9208 C   0  0  0  0  0  0  0  0  0  0  0  0
    2.4109   -0.5801   -2.0764 O   0  0  0  0  0  0  0  0  0  0  0  0
    4.2199   -0.4666   -0.6021 C   0  0  0  0  0  0  0  0  0  0  0  0
    5.1444   -0.7341   -1.6217 C   0  0  0  0  0  0  0  0  0  0  0  0
    6.5091   -0.7996   -1.3329 C   0  0  0  0  0  0  0  0  0  0  0  0
    6.9566   -0.5989   -0.0278 C   0  0  0  0  0  0  0  0  0  0  0  0
    6.0400   -0.3324    0.9897 C   0  0  0  0  0  0  0  0  0  0  0  0
    4.6713   -0.2672    0.6974 C   0  0  0  0  0  0  0  0  0  0  0  0
    3.7117    0.0131    1.7696 C   0  0  0  0  0  0  0  0  0  0  0  0
    4.0550    0.1970    2.9338 O   0  0  0  0  0  0  0  0  0  0  0  0
    2.0036    0.4372    3.2711 H   0  0  0  0  0  0  0  0  0  0  0  0
    0.2569   -0.2506   -1.3009 H   0  0  0  0  0  0  0  0  0  0  0  0
   -0.4764   -1.0579    1.5460 H   0  0  0  0  0  0  0  0  0  0  0  0
   -0.0846   -2.1464    0.2201 H   0  0  0  0  0  0  0  0  0  0  0  0
   -2.5351   -1.8738    0.5432 H   0  0  0  0  0  0  0  0  0  0  0  0
   -2.0102   -1.3868   -1.0623 H   0  0  0  0  0  0  0  0  0  0  0  0
   -2.5390    0.4720    1.3114 H   0  0  0  0  0  0  0  0  0  0  0  0
   -2.1672    2.3604   -0.2343 H   0  0  0  0  0  0  0  0  0  0  0  0
   -1.7804    1.2581   -1.5479 H   0  0  0  0  0  0  0  0  0  0  0  0
   -0.2437    1.6192    1.0544 H   0  0  0  0  0  0  0  0  0  0  0  0
    0.2833    2.0885   -0.5575 H   0  0  0  0  0  0  0  0  0  0  0  0
   -3.6713   -0.0923   -2.2980 H   0  0  0  0  0  0  0  0  0  0  0  0
   -6.0421   -0.0051   -2.9447 H   0  0  0  0  0  0  0  0  0  0  0  0
   -7.1401    0.8384    1.1292 H   0  0  0  0  0  0  0  0  0  0  0  0
   -4.7721    0.7547    1.7940 H   0  0  0  0  0  0  0  0  0  0  0  0
    4.8055   -0.8925   -2.6445 H   0  0  0  0  0  0  0  0  0  0  0  0
    7.2224   -1.0076   -2.1277 H   0  0  0  0  0  0  0  0  0  0  0  0
    8.0199   -0.6500    0.1972 H   0  0  0  0  0  0  0  0  0  0  0  0
    6.3952   -0.1765    2.0070 H   0  0  0  0  0  0  0  0  0  0  0  0
  1  2  1  0
  2  3  2  0
  3  4  1  0
  4  5  1  0
  5  6  1  0
  6  7  1  0
  7  8  1  0
  8  9  1  0
  7 10  1  0
 10 11  2  0
 11 12  1  0
 12 13  2  0
 13 14  1  0
 13 15  1  0
 15 16  2  0
  3 17  1  0
 17 18  2  0
 17 19  1  0
 19 20  2  0
 20 21  1  0
 21 22  2  0
 22 23  1  0
 23 24  2  0
 24 25  1  0
 25 26  2  0
  9  4  1  0
 16 10  1  0
 24 19  1  0
 25  2  1  0
  1 27  1  0
  4 28  1  0
  5 29  1  0
  5 30  1  0
  6 31  1  0
  6 32  1  0
  7 33  1  0
  8 34  1  0
  8 35  1  0
  9 36  1  0
  9 37  1  0
 11 38  1  0
 12 39  1  0
 15 40  1  0
 16 41  1  0
 20 42  1  0
 21 43  1  0
 22 44  1  0
 23 45  1  0
M  END
>  <Energy>  (2) 
77.43647985626131

>  <Real charge>  (2) 
0

>  <Mult>  (2) 
1

$$$$
