mol_976 174
     RDKit          3D

 50 49  0  0  0  0  0  0  0  0999 V2000
    8.4830    1.5246   -0.7375 C   0  0  0  0  0  0  0  0  0  0  0  0
    6.9910    1.3788   -0.9906 C   0  0  0  0  0  0  0  0  0  0  0  0
    6.4882   -0.0085   -0.5917 C   0  0  0  0  0  0  0  0  0  0  0  0
    4.9862   -0.1514   -0.8484 C   0  0  0  0  0  0  0  0  0  0  0  0
    4.4851   -1.5397   -0.4445 C   0  0  0  0  0  0  0  0  0  0  0  0
    3.0113   -1.7784   -0.7856 C   0  0  0  0  0  0  0  0  0  0  0  0
    2.0512   -0.8901    0.0086 C   0  0  0  0  0  0  0  0  0  0  0  0
    0.5929   -1.2497   -0.2854 C   0  0  0  0  0  0  0  0  0  0  0  0
   -0.3694   -0.3606    0.5040 C   0  0  0  0  0  0  0  0  0  0  0  0
   -1.8268   -0.7203    0.2106 C   0  0  0  0  0  0  0  0  0  0  0  0
   -2.7891    0.1690    0.9998 C   0  0  0  0  0  0  0  0  0  0  0  0
   -4.2475   -0.1913    0.7066 C   0  0  0  0  0  0  0  0  0  0  0  0
   -5.2076    0.7025    1.4946 C   0  0  0  0  0  0  0  0  0  0  0  0
   -6.6789    0.3124    1.3267 C   0  0  0  0  0  0  0  0  0  0  0  0
   -7.2043    0.5191   -0.0945 C   0  0  0  0  0  0  0  0  0  0  0  0
   -8.6947    0.2273   -0.1822 C   0  0  0  0  0  0  0  0  0  0  0  0
    8.8211    2.5237   -1.0296 H   0  0  0  0  0  0  0  0  0  0  0  0
    9.0526    0.7905   -1.3163 H   0  0  0  0  0  0  0  0  0  0  0  0
    8.7168    1.3832    0.3225 H   0  0  0  0  0  0  0  0  0  0  0  0
    6.4534    2.1473   -0.4230 H   0  0  0  0  0  0  0  0  0  0  0  0
    6.7872    1.5577   -2.0527 H   0  0  0  0  0  0  0  0  0  0  0  0
    7.0327   -0.7731   -1.1591 H   0  0  0  0  0  0  0  0  0  0  0  0
    6.6974   -0.1840    0.4706 H   0  0  0  0  0  0  0  0  0  0  0  0
    4.7777    0.0202   -1.9113 H   0  0  0  0  0  0  0  0  0  0  0  0
    4.4521    0.6203   -0.2830 H   0  0  0  0  0  0  0  0  0  0  0  0
    5.0823   -2.3003   -0.9627 H   0  0  0  0  0  0  0  0  0  0  0  0
    4.6433   -1.6928    0.6300 H   0  0  0  0  0  0  0  0  0  0  0  0
    2.7795   -2.8305   -0.5782 H   0  0  0  0  0  0  0  0  0  0  0  0
    2.8534   -1.6268   -1.8604 H   0  0  0  0  0  0  0  0  0  0  0  0
    2.2174    0.1630   -0.2440 H   0  0  0  0  0  0  0  0  0  0  0  0
    2.2478   -1.0030    1.0815 H   0  0  0  0  0  0  0  0  0  0  0  0
    0.3973   -1.1405   -1.3591 H   0  0  0  0  0  0  0  0  0  0  0  0
    0.4146   -2.3011   -0.0292 H   0  0  0  0  0  0  0  0  0  0  0  0
   -0.1920    0.6910    0.2479 H   0  0  0  0  0  0  0  0  0  0  0  0
   -0.1731   -0.4695    1.5776 H   0  0  0  0  0  0  0  0  0  0  0  0
   -2.0045   -1.7718    0.4669 H   0  0  0  0  0  0  0  0  0  0  0  0
   -2.0229   -0.6116   -0.8631 H   0  0  0  0  0  0  0  0  0  0  0  0
   -2.5922    0.0602    2.0733 H   0  0  0  0  0  0  0  0  0  0  0  0
   -2.6122    1.2205    0.7432 H   0  0  0  0  0  0  0  0  0  0  0  0
   -4.4325   -0.0861   -0.3682 H   0  0  0  0  0  0  0  0  0  0  0  0
   -4.4253   -1.2416    0.9669 H   0  0  0  0  0  0  0  0  0  0  0  0
   -5.0684    1.7490    1.1972 H   0  0  0  0  0  0  0  0  0  0  0  0
   -4.9585    0.6420    2.5614 H   0  0  0  0  0  0  0  0  0  0  0  0
   -6.8185   -0.7337    1.6251 H   0  0  0  0  0  0  0  0  0  0  0  0
   -7.2742    0.9199    2.0199 H   0  0  0  0  0  0  0  0  0  0  0  0
   -7.0211    1.5515   -0.4135 H   0  0  0  0  0  0  0  0  0  0  0  0
   -6.6780   -0.1379   -0.7949 H   0  0  0  0  0  0  0  0  0  0  0  0
   -9.2643    0.8917    0.4755 H   0  0  0  0  0  0  0  0  0  0  0  0
   -8.9092   -0.8072    0.1043 H   0  0  0  0  0  0  0  0  0  0  0  0
   -9.0505    0.3772   -1.2063 H   0  0  0  0  0  0  0  0  0  0  0  0
  1  2  1  0
  2  3  1  0
  3  4  1  0
  4  5  1  0
  5  6  1  0
  6  7  1  0
  7  8  1  0
  8  9  1  0
  9 10  1  0
 10 11  1  0
 11 12  1  0
 12 13  1  0
 13 14  1  0
 14 15  1  0
 15 16  1  0
  1 17  1  0
  1 18  1  0
  1 19  1  0
  2 20  1  0
  2 21  1  0
  3 22  1  0
  3 23  1  0
  4 24  1  0
  4 25  1  0
  5 26  1  0
  5 27  1  0
  6 28  1  0
  6 29  1  0
  7 30  1  0
  7 31  1  0
  8 32  1  0
  8 33  1  0
  9 34  1  0
  9 35  1  0
 10 36  1  0
 10 37  1  0
 11 38  1  0
 11 39  1  0
 12 40  1  0
 12 41  1  0
 13 42  1  0
 13 43  1  0
 14 44  1  0
 14 45  1  0
 15 46  1  0
 15 47  1  0
 16 48  1  0
 16 49  1  0
 16 50  1  0
M  END
>  <Energy>  (1) 
-5.80328760204748

>  <Real charge>  (1) 
0

>  <Mult>  (1) 
1

$$$$
mol_976 705
     RDKit          3D

 50 49  0  0  0  0  0  0  0  0999 V2000
   -8.8700   -0.8311    0.3059 C   0  0  0  0  0  0  0  0  0  0  0  0
   -7.5547   -0.3893    0.9274 C   0  0  0  0  0  0  0  0  0  0  0  0
   -6.4010   -0.4942   -0.0697 C   0  0  0  0  0  0  0  0  0  0  0  0
   -5.0798   -0.0488    0.5594 C   0  0  0  0  0  0  0  0  0  0  0  0
   -3.9252   -0.1537   -0.4384 C   0  0  0  0  0  0  0  0  0  0  0  0
   -2.6040    0.2916    0.1907 C   0  0  0  0  0  0  0  0  0  0  0  0
   -1.4494    0.1867   -0.8070 C   0  0  0  0  0  0  0  0  0  0  0  0
   -0.1283    0.6320   -0.1779 C   0  0  0  0  0  0  0  0  0  0  0  0
    1.0264    0.5268   -1.1756 C   0  0  0  0  0  0  0  0  0  0  0  0
    2.3482    0.9724   -0.5460 C   0  0  0  0  0  0  0  0  0  0  0  0
    3.5023    0.8610   -1.5440 C   0  0  0  0  0  0  0  0  0  0  0  0
    4.8295    1.4050   -1.0065 C   0  0  0  0  0  0  0  0  0  0  0  0
    5.3622    0.7405    0.2678 C   0  0  0  0  0  0  0  0  0  0  0  0
    5.6273   -0.7584    0.1076 C   0  0  0  0  0  0  0  0  0  0  0  0
    6.1743   -1.4152    1.3779 C   0  0  0  0  0  0  0  0  0  0  0  0
    7.5686   -0.9410    1.7577 C   0  0  0  0  0  0  0  0  0  0  0  0
   -9.1249   -0.2081   -0.5573 H   0  0  0  0  0  0  0  0  0  0  0  0
   -8.8168   -1.8730   -0.0257 H   0  0  0  0  0  0  0  0  0  0  0  0
   -9.6810   -0.7481    1.0361 H   0  0  0  0  0  0  0  0  0  0  0  0
   -7.6519    0.6451    1.2772 H   0  0  0  0  0  0  0  0  0  0  0  0
   -7.3455   -1.0107    1.8059 H   0  0  0  0  0  0  0  0  0  0  0  0
   -6.3108   -1.5298   -0.4196 H   0  0  0  0  0  0  0  0  0  0  0  0
   -6.6172    0.1259   -0.9482 H   0  0  0  0  0  0  0  0  0  0  0  0
   -5.1701    0.9868    0.9090 H   0  0  0  0  0  0  0  0  0  0  0  0
   -4.8637   -0.6691    1.4378 H   0  0  0  0  0  0  0  0  0  0  0  0
   -3.8348   -1.1894   -0.7881 H   0  0  0  0  0  0  0  0  0  0  0  0
   -4.1412    0.4665   -1.3168 H   0  0  0  0  0  0  0  0  0  0  0  0
   -2.3879   -0.3286    1.0691 H   0  0  0  0  0  0  0  0  0  0  0  0
   -2.6943    1.3273    0.5404 H   0  0  0  0  0  0  0  0  0  0  0  0
   -1.6655    0.8069   -1.6854 H   0  0  0  0  0  0  0  0  0  0  0  0
   -1.3591   -0.8490   -1.1567 H   0  0  0  0  0  0  0  0  0  0  0  0
   -0.2184    1.6677    0.1717 H   0  0  0  0  0  0  0  0  0  0  0  0
    0.0876    0.0118    0.7006 H   0  0  0  0  0  0  0  0  0  0  0  0
    1.1172   -0.5090   -1.5248 H   0  0  0  0  0  0  0  0  0  0  0  0
    0.8099    1.1468   -2.0540 H   0  0  0  0  0  0  0  0  0  0  0  0
    2.2593    2.0095   -0.2006 H   0  0  0  0  0  0  0  0  0  0  0  0
    2.5516    0.3518    0.3339 H   0  0  0  0  0  0  0  0  0  0  0  0
    3.2482    1.4263   -2.4497 H   0  0  0  0  0  0  0  0  0  0  0  0
    3.6226   -0.1817   -1.8593 H   0  0  0  0  0  0  0  0  0  0  0  0
    5.5858    1.3133   -1.7961 H   0  0  0  0  0  0  0  0  0  0  0  0
    4.7171    2.4793   -0.8131 H   0  0  0  0  0  0  0  0  0  0  0  0
    4.6677    0.9093    1.0986 H   0  0  0  0  0  0  0  0  0  0  0  0
    6.2940    1.2508    0.5377 H   0  0  0  0  0  0  0  0  0  0  0  0
    4.6938   -1.2698   -0.1527 H   0  0  0  0  0  0  0  0  0  0  0  0
    6.3242   -0.9256   -0.7226 H   0  0  0  0  0  0  0  0  0  0  0  0
    5.4879   -1.2399    2.2145 H   0  0  0  0  0  0  0  0  0  0  0  0
    6.2091   -2.4997    1.2189 H   0  0  0  0  0  0  0  0  0  0  0  0
    7.9428   -1.5200    2.6082 H   0  0  0  0  0  0  0  0  0  0  0  0
    8.2683   -1.0708    0.9260 H   0  0  0  0  0  0  0  0  0  0  0  0
    7.5694    0.1128    2.0505 H   0  0  0  0  0  0  0  0  0  0  0  0
  1  2  1  0
  2  3  1  0
  3  4  1  0
  4  5  1  0
  5  6  1  0
  6  7  1  0
  7  8  1  0
  8  9  1  0
  9 10  1  0
 10 11  1  0
 11 12  1  0
 12 13  1  0
 13 14  1  0
 14 15  1  0
 15 16  1  0
  1 17  1  0
  1 18  1  0
  1 19  1  0
  2 20  1  0
  2 21  1  0
  3 22  1  0
  3 23  1  0
  4 24  1  0
  4 25  1  0
  5 26  1  0
  5 27  1  0
  6 28  1  0
  6 29  1  0
  7 30  1  0
  7 31  1  0
  8 32  1  0
  8 33  1  0
  9 34  1  0
  9 35  1  0
 10 36  1  0
 10 37  1  0
 11 38  1  0
 11 39  1  0
 12 40  1  0
 12 41  1  0
 13 42  1  0
 13 43  1  0
 14 44  1  0
 14 45  1  0
 15 46  1  0
 15 47  1  0
 16 48  1  0
 16 49  1  0
 16 50  1  0
M  END
>  <Energy>  (2) 
-5.177078719059476

>  <Real charge>  (2) 
0

>  <Mult>  (2) 
1

$$$$
