mol_442 152
     RDKit          3D

 45 46  0  0  0  0  0  0  0  0999 V2000
   -4.9077   -1.4471   -2.5577 O   0  0  0  0  0  0  0  0  0  0  0  0
   -3.6256   -1.8860   -2.1188 C   0  0  0  0  0  0  0  0  0  0  0  0
   -2.9463   -0.8624   -1.1986 C   0  0  0  0  0  0  0  0  0  0  0  0
   -1.6038   -1.2850   -0.9393 O   0  0  0  0  0  0  0  0  0  0  0  0
   -0.8565   -0.3228   -0.1863 C   0  0  0  0  0  0  0  0  0  0  0  0
    0.4539   -0.8690   -0.0170 O   0  0  0  0  0  0  0  0  0  0  0  0
    1.5108    0.0974   -0.0350 C   0  0  0  0  0  0  0  0  0  0  0  0
    2.0010    0.3757   -1.4709 C   0  0  0  0  0  0  0  0  0  0  0  0
    1.0147    1.1149   -2.2088 O   0  0  0  0  0  0  0  0  0  0  0  0
    3.2945    1.1932   -1.4562 C   0  0  0  0  0  0  0  0  0  0  0  0
    2.9628    2.5330   -1.0195 O   0  0  0  0  0  0  0  0  0  0  0  0
    4.3355    0.5755   -0.5089 C   0  0  0  0  0  0  0  0  0  0  0  0
    5.4153    1.4924   -0.3965 O   0  0  0  0  0  0  0  0  0  0  0  0
    3.8013    0.3938    0.7964 O   0  0  0  0  0  0  0  0  0  0  0  0
    2.6747   -0.4955    0.7856 C   0  0  0  0  0  0  0  0  0  0  0  0
    2.2629   -0.7557    2.2416 C   0  0  0  0  0  0  0  0  0  0  0  0
    1.7094    0.4226    2.8319 O   0  0  0  0  0  0  0  0  0  0  0  0
   -1.5097   -0.1034    1.2015 C   0  0  0  0  0  0  0  0  0  0  0  0
   -0.8948    0.9456    1.9665 O   0  0  0  0  0  0  0  0  0  0  0  0
   -2.9781    0.2857    1.0161 C   0  0  0  0  0  0  0  0  0  0  0  0
   -3.6429    0.3502    2.2893 O   0  0  0  0  0  0  0  0  0  0  0  0
   -3.7071   -0.7197    0.1273 C   0  0  0  0  0  0  0  0  0  0  0  0
   -5.0553   -0.2838   -0.0849 O   0  0  0  0  0  0  0  0  0  0  0  0
   -5.3538   -1.0494   -1.7789 H   0  0  0  0  0  0  0  0  0  0  0  0
   -3.0074   -2.0658   -3.0048 H   0  0  0  0  0  0  0  0  0  0  0  0
   -3.7389   -2.8515   -1.6135 H   0  0  0  0  0  0  0  0  0  0  0  0
   -2.9358    0.1016   -1.7255 H   0  0  0  0  0  0  0  0  0  0  0  0
   -0.8203    0.6184   -0.7444 H   0  0  0  0  0  0  0  0  0  0  0  0
    1.1745    1.0413    0.4108 H   0  0  0  0  0  0  0  0  0  0  0  0
    2.1506   -0.5732   -1.9984 H   0  0  0  0  0  0  0  0  0  0  0  0
    1.1741    2.0559   -1.9813 H   0  0  0  0  0  0  0  0  0  0  0  0
    3.7022    1.3052   -2.4668 H   0  0  0  0  0  0  0  0  0  0  0  0
    3.8151    2.9072   -0.7091 H   0  0  0  0  0  0  0  0  0  0  0  0
    4.7136   -0.3761   -0.9004 H   0  0  0  0  0  0  0  0  0  0  0  0
    6.0824    1.0328    0.1419 H   0  0  0  0  0  0  0  0  0  0  0  0
    2.9909   -1.4592    0.3634 H   0  0  0  0  0  0  0  0  0  0  0  0
    3.1272   -1.0539    2.8442 H   0  0  0  0  0  0  0  0  0  0  0  0
    1.5086   -1.5458    2.3044 H   0  0  0  0  0  0  0  0  0  0  0  0
    2.4216    1.0930    2.7997 H   0  0  0  0  0  0  0  0  0  0  0  0
   -1.4423   -1.0165    1.8060 H   0  0  0  0  0  0  0  0  0  0  0  0
   -0.0330    0.6094    2.3008 H   0  0  0  0  0  0  0  0  0  0  0  0
   -3.0586    1.2950    0.5927 H   0  0  0  0  0  0  0  0  0  0  0  0
   -3.0461    0.8824    2.8551 H   0  0  0  0  0  0  0  0  0  0  0  0
   -3.7608   -1.6866    0.6436 H   0  0  0  0  0  0  0  0  0  0  0  0
   -5.3727   -0.0137    0.8031 H   0  0  0  0  0  0  0  0  0  0  0  0
  1  2  1  0
  2  3  1  0
  3  4  1  0
  4  5  1  0
  5  6  1  0
  6  7  1  0
  7  8  1  0
  8  9  1  0
  8 10  1  0
 10 11  1  0
 10 12  1  0
 12 13  1  0
 12 14  1  0
 14 15  1  0
 15 16  1  0
 16 17  1  0
  5 18  1  0
 18 19  1  0
 18 20  1  0
 20 21  1  0
 20 22  1  0
 22 23  1  0
 22  3  1  0
 15  7  1  0
  1 24  1  0
  2 25  1  0
  2 26  1  0
  3 27  1  0
  5 28  1  0
  7 29  1  0
  8 30  1  0
  9 31  1  0
 10 32  1  0
 11 33  1  0
 12 34  1  0
 13 35  1  0
 15 36  1  0
 16 37  1  0
 16 38  1  0
 17 39  1  0
 18 40  1  0
 19 41  1  0
 20 42  1  0
 21 43  1  0
 22 44  1  0
 23 45  1  0
M  END
>  <Energy>  (1) 
168.1496671536313

>  <Real charge>  (1) 
0

>  <Mult>  (1) 
1

$$$$
mol_442 930
     RDKit          3D

 45 46  0  0  0  0  0  0  0  0999 V2000
    4.1558   -2.2605   -1.9023 O   0  0  0  0  0  0  0  0  0  0  0  0
    3.1038   -1.3026   -1.9067 C   0  0  0  0  0  0  0  0  0  0  0  0
    2.5775   -1.0249   -0.4915 C   0  0  0  0  0  0  0  0  0  0  0  0
    1.3844   -0.2282   -0.5778 O   0  0  0  0  0  0  0  0  0  0  0  0
    0.7818   -0.0307    0.6998 C   0  0  0  0  0  0  0  0  0  0  0  0
   -0.4001    0.7649    0.5633 O   0  0  0  0  0  0  0  0  0  0  0  0
   -1.4858    0.1006   -0.1094 C   0  0  0  0  0  0  0  0  0  0  0  0
   -1.6151    0.6404   -1.5468 C   0  0  0  0  0  0  0  0  0  0  0  0
   -0.5344    0.1849   -2.3816 O   0  0  0  0  0  0  0  0  0  0  0  0
   -2.9131    0.1484   -2.1906 C   0  0  0  0  0  0  0  0  0  0  0  0
   -3.0457    0.6925   -3.5095 O   0  0  0  0  0  0  0  0  0  0  0  0
   -4.1092    0.5029   -1.2983 C   0  0  0  0  0  0  0  0  0  0  0  0
   -4.2550    1.9085   -1.1534 O   0  0  0  0  0  0  0  0  0  0  0  0
   -3.9581   -0.0950   -0.0117 O   0  0  0  0  0  0  0  0  0  0  0  0
   -2.7833    0.3791    0.6762 C   0  0  0  0  0  0  0  0  0  0  0  0
   -2.7548   -0.3234    2.0404 C   0  0  0  0  0  0  0  0  0  0  0  0
   -3.9449   -0.0220    2.7685 O   0  0  0  0  0  0  0  0  0  0  0  0
    1.7378    0.7400    1.6318 C   0  0  0  0  0  0  0  0  0  0  0  0
    1.1811    0.8974    2.9449 O   0  0  0  0  0  0  0  0  0  0  0  0
    3.0607   -0.0140    1.7487 C   0  0  0  0  0  0  0  0  0  0  0  0
    4.0142    0.7563    2.4951 O   0  0  0  0  0  0  0  0  0  0  0  0
    3.6358   -0.3043    0.3616 C   0  0  0  0  0  0  0  0  0  0  0  0
    4.8238   -1.0921    0.4890 O   0  0  0  0  0  0  0  0  0  0  0  0
    4.7642   -2.0174   -1.1713 H   0  0  0  0  0  0  0  0  0  0  0  0
    2.2974   -1.6873   -2.5402 H   0  0  0  0  0  0  0  0  0  0  0  0
    3.4640   -0.3823   -2.3795 H   0  0  0  0  0  0  0  0  0  0  0  0
    2.3349   -1.9939   -0.0337 H   0  0  0  0  0  0  0  0  0  0  0  0
    0.5058   -0.9921    1.1532 H   0  0  0  0  0  0  0  0  0  0  0  0
   -1.3078   -0.9827   -0.1530 H   0  0  0  0  0  0  0  0  0  0  0  0
   -1.5585    1.7353   -1.5588 H   0  0  0  0  0  0  0  0  0  0  0  0
    0.2872    0.2977   -1.8588 H   0  0  0  0  0  0  0  0  0  0  0  0
   -2.8597   -0.9417   -2.3071 H   0  0  0  0  0  0  0  0  0  0  0  0
   -2.1490    0.6331   -3.8965 H   0  0  0  0  0  0  0  0  0  0  0  0
   -5.0260    0.1134   -1.7550 H   0  0  0  0  0  0  0  0  0  0  0  0
   -5.2110    2.0818   -1.1615 H   0  0  0  0  0  0  0  0  0  0  0  0
   -2.8985    1.4545    0.8654 H   0  0  0  0  0  0  0  0  0  0  0  0
   -2.7147   -1.4111    1.9202 H   0  0  0  0  0  0  0  0  0  0  0  0
   -1.9005   -0.0038    2.6437 H   0  0  0  0  0  0  0  0  0  0  0  0
   -4.6781   -0.1327    2.1323 H   0  0  0  0  0  0  0  0  0  0  0  0
    1.9192    1.7512    1.2463 H   0  0  0  0  0  0  0  0  0  0  0  0
    0.3351    1.3720    2.8220 H   0  0  0  0  0  0  0  0  0  0  0  0
    2.9277   -0.9467    2.3110 H   0  0  0  0  0  0  0  0  0  0  0  0
    3.5389    1.0458    3.3008 H   0  0  0  0  0  0  0  0  0  0  0  0
    3.9268    0.6411   -0.1137 H   0  0  0  0  0  0  0  0  0  0  0  0
    5.3452   -0.6526    1.1944 H   0  0  0  0  0  0  0  0  0  0  0  0
  1  2  1  0
  2  3  1  0
  3  4  1  0
  4  5  1  0
  5  6  1  0
  6  7  1  0
  7  8  1  0
  8  9  1  0
  8 10  1  0
 10 11  1  0
 10 12  1  0
 12 13  1  0
 12 14  1  0
 14 15  1  0
 15 16  1  0
 16 17  1  0
  5 18  1  0
 18 19  1  0
 18 20  1  0
 20 21  1  0
 20 22  1  0
 22 23  1  0
 22  3  1  0
 15  7  1  0
  1 24  1  0
  2 25  1  0
  2 26  1  0
  3 27  1  0
  5 28  1  0
  7 29  1  0
  8 30  1  0
  9 31  1  0
 10 32  1  0
 11 33  1  0
 12 34  1  0
 13 35  1  0
 15 36  1  0
 16 37  1  0
 16 38  1  0
 17 39  1  0
 18 40  1  0
 19 41  1  0
 20 42  1  0
 21 43  1  0
 22 44  1  0
 23 45  1  0
M  END
>  <Energy>  (2) 
168.42273375112848

>  <Real charge>  (2) 
0

>  <Mult>  (2) 
1

$$$$
mol_442 860
     RDKit          3D

 45 46  0  0  0  0  0  0  0  0999 V2000
   -2.6435    2.2242    1.0953 O   0  0  0  0  0  0  0  0  0  0  0  0
   -2.9391    2.0622   -0.2893 C   0  0  0  0  0  0  0  0  0  0  0  0
   -2.8341    0.5952   -0.7465 C   0  0  0  0  0  0  0  0  0  0  0  0
   -1.4745    0.1192   -0.7387 O   0  0  0  0  0  0  0  0  0  0  0  0
   -0.9451   -0.1454    0.5612 C   0  0  0  0  0  0  0  0  0  0  0  0
    0.3532   -0.7407    0.3978 O   0  0  0  0  0  0  0  0  0  0  0  0
    1.3566    0.1875   -0.0532 C   0  0  0  0  0  0  0  0  0  0  0  0
    1.7317   -0.1199   -1.5118 C   0  0  0  0  0  0  0  0  0  0  0  0
    0.6316    0.1721   -2.3962 O   0  0  0  0  0  0  0  0  0  0  0  0
    2.9068    0.7496   -1.9600 C   0  0  0  0  0  0  0  0  0  0  0  0
    2.4493    2.1098   -2.0779 O   0  0  0  0  0  0  0  0  0  0  0  0
    4.0811    0.6590   -0.9745 C   0  0  0  0  0  0  0  0  0  0  0  0
    4.7423   -0.5873   -1.1054 O   0  0  0  0  0  0  0  0  0  0  0  0
    3.7036    0.8627    0.3853 O   0  0  0  0  0  0  0  0  0  0  0  0
    2.5923    0.0825    0.8570 C   0  0  0  0  0  0  0  0  0  0  0  0
    3.0185   -1.3605    1.1836 C   0  0  0  0  0  0  0  0  0  0  0  0
    4.1497   -1.3419    2.0573 O   0  0  0  0  0  0  0  0  0  0  0  0
   -1.8052   -1.1746    1.3226 C   0  0  0  0  0  0  0  0  0  0  0  0
   -1.7584   -2.4625    0.6612 O   0  0  0  0  0  0  0  0  0  0  0  0
   -3.2653   -0.7373    1.3770 C   0  0  0  0  0  0  0  0  0  0  0  0
   -4.0814   -1.8083    1.8909 O   0  0  0  0  0  0  0  0  0  0  0  0
   -3.7734   -0.3819   -0.0239 C   0  0  0  0  0  0  0  0  0  0  0  0
   -5.1091    0.1250    0.0513 O   0  0  0  0  0  0  0  0  0  0  0  0
   -2.8709    3.1455    1.3198 H   0  0  0  0  0  0  0  0  0  0  0  0
   -3.9467    2.4495   -0.4720 H   0  0  0  0  0  0  0  0  0  0  0  0
   -2.2213    2.6736   -0.8461 H   0  0  0  0  0  0  0  0  0  0  0  0
   -3.1307    0.6026   -1.8032 H   0  0  0  0  0  0  0  0  0  0  0  0
   -0.8387    0.7707    1.1481 H   0  0  0  0  0  0  0  0  0  0  0  0
    0.9751    1.2166   -0.0022 H   0  0  0  0  0  0  0  0  0  0  0  0
    1.9619   -1.1844   -1.6312 H   0  0  0  0  0  0  0  0  0  0  0  0
   -0.1853   -0.1225   -1.9375 H   0  0  0  0  0  0  0  0  0  0  0  0
    3.2272    0.4419   -2.9623 H   0  0  0  0  0  0  0  0  0  0  0  0
    1.6113    2.0378   -2.5814 H   0  0  0  0  0  0  0  0  0  0  0  0
    4.8008    1.4489   -1.2186 H   0  0  0  0  0  0  0  0  0  0  0  0
    5.6718   -0.4205   -0.8721 H   0  0  0  0  0  0  0  0  0  0  0  0
    2.3248    0.5336    1.8216 H   0  0  0  0  0  0  0  0  0  0  0  0
    3.2919   -1.9322    0.2941 H   0  0  0  0  0  0  0  0  0  0  0  0
    2.2181   -1.9032    1.6956 H   0  0  0  0  0  0  0  0  0  0  0  0
    4.7349   -0.6408    1.7136 H   0  0  0  0  0  0  0  0  0  0  0  0
   -1.4074   -1.3475    2.3284 H   0  0  0  0  0  0  0  0  0  0  0  0
   -0.8291   -2.5630    0.3695 H   0  0  0  0  0  0  0  0  0  0  0  0
   -3.4008    0.1014    2.0656 H   0  0  0  0  0  0  0  0  0  0  0  0
   -3.6715   -2.6277    1.5397 H   0  0  0  0  0  0  0  0  0  0  0  0
   -3.8329   -1.3051   -0.6151 H   0  0  0  0  0  0  0  0  0  0  0  0
   -5.5705   -0.4642    0.6827 H   0  0  0  0  0  0  0  0  0  0  0  0
  1  2  1  0
  2  3  1  0
  3  4  1  0
  4  5  1  0
  5  6  1  0
  6  7  1  0
  7  8  1  0
  8  9  1  0
  8 10  1  0
 10 11  1  0
 10 12  1  0
 12 13  1  0
 12 14  1  0
 14 15  1  0
 15 16  1  0
 16 17  1  0
  5 18  1  0
 18 19  1  0
 18 20  1  0
 20 21  1  0
 20 22  1  0
 22 23  1  0
 22  3  1  0
 15  7  1  0
  1 24  1  0
  2 25  1  0
  2 26  1  0
  3 27  1  0
  5 28  1  0
  7 29  1  0
  8 30  1  0
  9 31  1  0
 10 32  1  0
 11 33  1  0
 12 34  1  0
 13 35  1  0
 15 36  1  0
 16 37  1  0
 16 38  1  0
 17 39  1  0
 18 40  1  0
 19 41  1  0
 20 42  1  0
 21 43  1  0
 22 44  1  0
 23 45  1  0
M  END
>  <Energy>  (3) 
168.87795648781815

>  <Real charge>  (3) 
0

>  <Mult>  (3) 
1

$$$$
mol_442 370
     RDKit          3D

 45 46  0  0  0  0  0  0  0  0999 V2000
    3.4901    2.9522    1.9710 O   0  0  0  0  0  0  0  0  0  0  0  0
    2.3858    2.5836    1.1493 C   0  0  0  0  0  0  0  0  0  0  0  0
    2.3078    1.0586    0.9769 C   0  0  0  0  0  0  0  0  0  0  0  0
    1.1975    0.7739    0.1135 O   0  0  0  0  0  0  0  0  0  0  0  0
    1.0113   -0.6315   -0.0717 C   0  0  0  0  0  0  0  0  0  0  0  0
   -0.1081   -0.8333   -0.9476 O   0  0  0  0  0  0  0  0  0  0  0  0
   -1.3743   -0.5043   -0.3528 C   0  0  0  0  0  0  0  0  0  0  0  0
   -1.8842    0.8250   -0.9425 C   0  0  0  0  0  0  0  0  0  0  0  0
   -1.1101    1.9470   -0.4870 O   0  0  0  0  0  0  0  0  0  0  0  0
   -3.3365    1.0825   -0.5405 C   0  0  0  0  0  0  0  0  0  0  0  0
   -3.8286    2.2660   -1.1841 O   0  0  0  0  0  0  0  0  0  0  0  0
   -4.2063   -0.1298   -0.9025 C   0  0  0  0  0  0  0  0  0  0  0  0
   -5.5453    0.0977   -0.4815 O   0  0  0  0  0  0  0  0  0  0  0  0
   -3.7025   -1.2845   -0.2388 O   0  0  0  0  0  0  0  0  0  0  0  0
   -2.3794   -1.6228   -0.6862 C   0  0  0  0  0  0  0  0  0  0  0  0
   -1.9969   -2.9384    0.0007 C   0  0  0  0  0  0  0  0  0  0  0  0
   -2.9479   -3.9478   -0.3377 O   0  0  0  0  0  0  0  0  0  0  0  0
    2.2457   -1.2526   -0.7599 C   0  0  0  0  0  0  0  0  0  0  0  0
    2.4225   -0.6794   -2.0669 O   0  0  0  0  0  0  0  0  0  0  0  0
    3.4901   -0.9953    0.0816 C   0  0  0  0  0  0  0  0  0  0  0  0
    3.4103   -1.7437    1.3050 O   0  0  0  0  0  0  0  0  0  0  0  0
    3.6338    0.4947    0.4199 C   0  0  0  0  0  0  0  0  0  0  0  0
    4.6946    0.6187    1.3809 O   0  0  0  0  0  0  0  0  0  0  0  0
    3.4213    3.9152    2.1133 H   0  0  0  0  0  0  0  0  0  0  0  0
    2.4902    3.0770    0.1765 H   0  0  0  0  0  0  0  0  0  0  0  0
    1.4621    2.9553    1.6066 H   0  0  0  0  0  0  0  0  0  0  0  0
    2.1171    0.6249    1.9680 H   0  0  0  0  0  0  0  0  0  0  0  0
    0.8177   -1.1219    0.8910 H   0  0  0  0  0  0  0  0  0  0  0  0
   -1.2818   -0.3994    0.7368 H   0  0  0  0  0  0  0  0  0  0  0  0
   -1.7839    0.8212   -2.0348 H   0  0  0  0  0  0  0  0  0  0  0  0
   -0.1708    1.6617   -0.5125 H   0  0  0  0  0  0  0  0  0  0  0  0
   -3.3951    1.2752    0.5385 H   0  0  0  0  0  0  0  0  0  0  0  0
   -3.1210    2.9318   -1.0592 H   0  0  0  0  0  0  0  0  0  0  0  0
   -4.2367   -0.2924   -1.9863 H   0  0  0  0  0  0  0  0  0  0  0  0
   -5.6582    1.0668   -0.4766 H   0  0  0  0  0  0  0  0  0  0  0  0
   -2.4161   -1.8065   -1.7687 H   0  0  0  0  0  0  0  0  0  0  0  0
   -1.0077   -3.2856   -0.3110 H   0  0  0  0  0  0  0  0  0  0  0  0
   -2.0077   -2.8324    1.0905 H   0  0  0  0  0  0  0  0  0  0  0  0
   -3.8260   -3.5454   -0.1814 H   0  0  0  0  0  0  0  0  0  0  0  0
    2.0809   -2.3276   -0.8966 H   0  0  0  0  0  0  0  0  0  0  0  0
    1.5334   -0.6815   -2.4727 H   0  0  0  0  0  0  0  0  0  0  0  0
    4.3900   -1.3361   -0.4437 H   0  0  0  0  0  0  0  0  0  0  0  0
    4.1657   -1.4133    1.8376 H   0  0  0  0  0  0  0  0  0  0  0  0
    3.9210    1.0420   -0.4860 H   0  0  0  0  0  0  0  0  0  0  0  0
    4.6361    1.5345    1.7352 H   0  0  0  0  0  0  0  0  0  0  0  0
  1  2  1  0
  2  3  1  0
  3  4  1  0
  4  5  1  0
  5  6  1  0
  6  7  1  0
  7  8  1  0
  8  9  1  0
  8 10  1  0
 10 11  1  0
 10 12  1  0
 12 13  1  0
 12 14  1  0
 14 15  1  0
 15 16  1  0
 16 17  1  0
  5 18  1  0
 18 19  1  0
 18 20  1  0
 20 21  1  0
 20 22  1  0
 22 23  1  0
 22  3  1  0
 15  7  1  0
  1 24  1  0
  2 25  1  0
  2 26  1  0
  3 27  1  0
  5 28  1  0
  7 29  1  0
  8 30  1  0
  9 31  1  0
 10 32  1  0
 11 33  1  0
 12 34  1  0
 13 35  1  0
 15 36  1  0
 16 37  1  0
 16 38  1  0
 17 39  1  0
 18 40  1  0
 19 41  1  0
 20 42  1  0
 21 43  1  0
 22 44  1  0
 23 45  1  0
M  END
>  <Energy>  (4) 
169.05752842424133

>  <Real charge>  (4) 
0

>  <Mult>  (4) 
1

$$$$
