mol_604 43
     RDKit          3D

 22 23  0  0  0  0  0  0  0  0999 V2000
    5.2847   -0.0024   -0.6553 Cl  0  0  0  0  0  0  0  0  0  0  0  0
    3.5552   -0.0016   -0.4409 C   0  0  0  0  0  0  0  0  0  0  0  0
    2.8100   -1.1579   -0.7333 C   0  0  0  0  0  0  0  0  0  0  0  0
    3.6099   -2.5934   -1.3100 Cl  0  0  0  0  0  0  0  0  0  0  0  0
    1.4128   -1.1543   -0.5591 C   0  0  0  0  0  0  0  0  0  0  0  0
    0.4778   -2.5836   -0.9188 Cl  0  0  0  0  0  0  0  0  0  0  0  0
    0.7399   -0.0003   -0.0918 C   0  0  0  0  0  0  0  0  0  0  0  0
    1.5076    1.1530    0.1969 C   0  0  0  0  0  0  0  0  0  0  0  0
    0.6901    2.5830    0.7740 Cl  0  0  0  0  0  0  0  0  0  0  0  0
    2.9050    1.1553    0.0246 C   0  0  0  0  0  0  0  0  0  0  0  0
    3.8229    2.5900    0.3883 Cl  0  0  0  0  0  0  0  0  0  0  0  0
   -0.7399    0.0003    0.0918 C   0  0  0  0  0  0  0  0  0  0  0  0
   -1.6020    0.3816   -0.9638 C   0  0  0  0  0  0  0  0  0  0  0  0
   -0.9014    0.8533   -2.4913 Cl  0  0  0  0  0  0  0  0  0  0  0  0
   -2.9997    0.3832   -0.7934 C   0  0  0  0  0  0  0  0  0  0  0  0
   -4.0350    0.8575   -2.1112 Cl  0  0  0  0  0  0  0  0  0  0  0  0
   -3.5552    0.0016    0.4409 C   0  0  0  0  0  0  0  0  0  0  0  0
   -5.2847    0.0024    0.6553 Cl  0  0  0  0  0  0  0  0  0  0  0  0
   -2.7153   -0.3806    1.5021 C   0  0  0  0  0  0  0  0  0  0  0  0
   -3.3979   -0.8542    3.0329 Cl  0  0  0  0  0  0  0  0  0  0  0  0
   -1.3184   -0.3803    1.3259 C   0  0  0  0  0  0  0  0  0  0  0  0
   -0.2664   -0.8528    2.6361 Cl  0  0  0  0  0  0  0  0  0  0  0  0
  1  2  1  0
  2  3  2  0
  3  4  1  0
  3  5  1  0
  5  6  1  0
  5  7  2  0
  7  8  1  0
  8  9  1  0
  8 10  2  0
 10 11  1  0
  7 12  1  0
 12 13  2  0
 13 14  1  0
 13 15  1  0
 15 16  1  0
 15 17  2  0
 17 18  1  0
 17 19  1  0
 19 20  1  0
 19 21  2  0
 21 22  1  0
 10  2  1  0
 21 12  1  0
M  END
>  <Energy>  (1) 
68.9562888988716

>  <Real charge>  (1) 
0

>  <Mult>  (1) 
1

$$$$
