mol_1014 283
     RDKit          3D

 29 29  0  0  0  0  0  0  0  0999 V2000
    4.2000    1.2230    0.2299 C   0  0  0  0  0  0  0  0  0  0  0  0
    3.1509    0.6190   -0.5442 N   0  0  0  0  0  0  0  0  0  0  0  0
    2.1219   -0.0669    0.0418 C   0  0  0  0  0  0  0  0  0  0  0  0
    2.0491   -0.3176    1.2368 O   0  0  0  0  0  0  0  0  0  0  0  0
    1.1937   -0.4028   -0.9302 O   0  0  0  0  0  0  0  0  0  0  0  0
    0.0912   -1.1086   -0.4333 C   0  0  0  0  0  0  0  0  0  0  0  0
    0.2031   -2.4985   -0.3320 C   0  0  0  0  0  0  0  0  0  0  0  0
   -0.8822   -3.2435    0.1196 C   0  0  0  0  0  0  0  0  0  0  0  0
   -2.0713   -2.5997    0.4556 C   0  0  0  0  0  0  0  0  0  0  0  0
   -2.1805   -1.2106    0.3338 C   0  0  0  0  0  0  0  0  0  0  0  0
   -1.1025   -0.4355   -0.1272 C   0  0  0  0  0  0  0  0  0  0  0  0
   -1.2259    1.0724   -0.2612 C   0  0  0  0  0  0  0  0  0  0  0  0
   -2.3973    1.4774   -1.1617 C   0  0  0  0  0  0  0  0  0  0  0  0
   -1.3401    1.7383    1.1123 C   0  0  0  0  0  0  0  0  0  0  0  0
    4.4807    0.5761    1.0653 H   0  0  0  0  0  0  0  0  0  0  0  0
    5.0618    1.3880   -0.4206 H   0  0  0  0  0  0  0  0  0  0  0  0
    3.8408    2.1803    0.6168 H   0  0  0  0  0  0  0  0  0  0  0  0
    3.0222    0.8706   -1.5141 H   0  0  0  0  0  0  0  0  0  0  0  0
    1.1329   -2.9945   -0.5934 H   0  0  0  0  0  0  0  0  0  0  0  0
   -0.8006   -4.3228    0.2142 H   0  0  0  0  0  0  0  0  0  0  0  0
   -2.9180   -3.1788    0.8158 H   0  0  0  0  0  0  0  0  0  0  0  0
   -3.1211   -0.7384    0.6085 H   0  0  0  0  0  0  0  0  0  0  0  0
   -0.3225    1.4707   -0.7381 H   0  0  0  0  0  0  0  0  0  0  0  0
   -2.3213    0.9954   -2.1427 H   0  0  0  0  0  0  0  0  0  0  0  0
   -3.3655    1.2053   -0.7283 H   0  0  0  0  0  0  0  0  0  0  0  0
   -2.4012    2.5614   -1.3206 H   0  0  0  0  0  0  0  0  0  0  0  0
   -0.4874    1.4744    1.7479 H   0  0  0  0  0  0  0  0  0  0  0  0
   -2.2531    1.4372    1.6376 H   0  0  0  0  0  0  0  0  0  0  0  0
   -1.3577    2.8289    1.0118 H   0  0  0  0  0  0  0  0  0  0  0  0
  1  2  1  0
  2  3  1  0
  3  4  2  0
  3  5  1  0
  5  6  1  0
  6  7  2  0
  7  8  1  0
  8  9  2  0
  9 10  1  0
 10 11  2  0
 11 12  1  0
 12 13  1  0
 12 14  1  0
 11  6  1  0
  1 15  1  0
  1 16  1  0
  1 17  1  0
  2 18  1  0
  7 19  1  0
  8 20  1  0
  9 21  1  0
 10 22  1  0
 12 23  1  0
 13 24  1  0
 13 25  1  0
 13 26  1  0
 14 27  1  0
 14 28  1  0
 14 29  1  0
M  END
>  <Energy>  (1) 
-10.504624621760321

>  <Real charge>  (1) 
0

>  <Mult>  (1) 
1

$$$$
mol_1014 180
     RDKit          3D

 29 29  0  0  0  0  0  0  0  0999 V2000
    3.4473   -2.6590    0.8214 C   0  0  0  0  0  0  0  0  0  0  0  0
    2.8678   -1.3544    0.6575 N   0  0  0  0  0  0  0  0  0  0  0  0
    1.5372   -1.1201    0.8741 C   0  0  0  0  0  0  0  0  0  0  0  0
    0.7129   -1.9890    1.1224 O   0  0  0  0  0  0  0  0  0  0  0  0
    1.2978    0.2408    0.7751 O   0  0  0  0  0  0  0  0  0  0  0  0
   -0.0418    0.5917    0.9821 C   0  0  0  0  0  0  0  0  0  0  0  0
   -0.4573    0.8169    2.2978 C   0  0  0  0  0  0  0  0  0  0  0  0
   -1.7703    1.2061    2.5460 C   0  0  0  0  0  0  0  0  0  0  0  0
   -2.6537    1.3777    1.4824 C   0  0  0  0  0  0  0  0  0  0  0  0
   -2.2246    1.1681    0.1677 C   0  0  0  0  0  0  0  0  0  0  0  0
   -0.9022    0.7824   -0.1112 C   0  0  0  0  0  0  0  0  0  0  0  0
   -0.4388    0.5590   -1.5404 C   0  0  0  0  0  0  0  0  0  0  0  0
   -0.6679    1.7922   -2.4202 C   0  0  0  0  0  0  0  0  0  0  0  0
   -1.1095   -0.6752   -2.1486 C   0  0  0  0  0  0  0  0  0  0  0  0
    4.3862   -2.6953    0.2642 H   0  0  0  0  0  0  0  0  0  0  0  0
    3.6425   -2.8227    1.8845 H   0  0  0  0  0  0  0  0  0  0  0  0
    2.7649   -3.4303    0.4544 H   0  0  0  0  0  0  0  0  0  0  0  0
    3.4586   -0.5377    0.5895 H   0  0  0  0  0  0  0  0  0  0  0  0
    0.2347    0.6797    3.1230 H   0  0  0  0  0  0  0  0  0  0  0  0
   -2.1063    1.3708    3.5660 H   0  0  0  0  0  0  0  0  0  0  0  0
   -3.6819    1.6744    1.6743 H   0  0  0  0  0  0  0  0  0  0  0  0
   -2.9402    1.3064   -0.6396 H   0  0  0  0  0  0  0  0  0  0  0  0
    0.6420    0.3750   -1.5484 H   0  0  0  0  0  0  0  0  0  0  0  0
   -0.1951    2.6783   -1.9822 H   0  0  0  0  0  0  0  0  0  0  0  0
   -1.7323    2.0120   -2.5552 H   0  0  0  0  0  0  0  0  0  0  0  0
   -0.2351    1.6387   -3.4148 H   0  0  0  0  0  0  0  0  0  0  0  0
   -0.7185   -0.8710   -3.1529 H   0  0  0  0  0  0  0  0  0  0  0  0
   -2.1948   -0.5510   -2.2318 H   0  0  0  0  0  0  0  0  0  0  0  0
   -0.9217   -1.5647   -1.5370 H   0  0  0  0  0  0  0  0  0  0  0  0
  1  2  1  0
  2  3  1  0
  3  4  2  0
  3  5  1  0
  5  6  1  0
  6  7  2  0
  7  8  1  0
  8  9  2  0
  9 10  1  0
 10 11  2  0
 11 12  1  0
 12 13  1  0
 12 14  1  0
 11  6  1  0
  1 15  1  0
  1 16  1  0
  1 17  1  0
  2 18  1  0
  7 19  1  0
  8 20  1  0
  9 21  1  0
 10 22  1  0
 12 23  1  0
 13 24  1  0
 13 25  1  0
 13 26  1  0
 14 27  1  0
 14 28  1  0
 14 29  1  0
M  END
>  <Energy>  (2) 
-10.492968514121817

>  <Real charge>  (2) 
0

>  <Mult>  (2) 
1

$$$$
mol_1014 91
     RDKit          3D

 29 29  0  0  0  0  0  0  0  0999 V2000
    3.8920   -1.2432    1.2433 C   0  0  0  0  0  0  0  0  0  0  0  0
    2.8157   -1.0694    0.3074 N   0  0  0  0  0  0  0  0  0  0  0  0
    1.9616   -0.0029    0.3773 C   0  0  0  0  0  0  0  0  0  0  0  0
    2.0881    0.9381    1.1481 O   0  0  0  0  0  0  0  0  0  0  0  0
    0.9396   -0.1826   -0.5430 O   0  0  0  0  0  0  0  0  0  0  0  0
   -0.0174    0.8420   -0.6236 C   0  0  0  0  0  0  0  0  0  0  0  0
    0.3884    2.1126   -1.0490 C   0  0  0  0  0  0  0  0  0  0  0  0
   -0.5520    3.1292   -1.1894 C   0  0  0  0  0  0  0  0  0  0  0  0
   -1.8935    2.8707   -0.9226 C   0  0  0  0  0  0  0  0  0  0  0  0
   -2.2968    1.5936   -0.5214 C   0  0  0  0  0  0  0  0  0  0  0  0
   -1.3675    0.5476   -0.3721 C   0  0  0  0  0  0  0  0  0  0  0  0
   -1.8792   -0.8196    0.0500 C   0  0  0  0  0  0  0  0  0  0  0  0
   -1.6229   -1.8958   -1.0082 C   0  0  0  0  0  0  0  0  0  0  0  0
   -1.3470   -1.2469    1.4196 C   0  0  0  0  0  0  0  0  0  0  0  0
    4.6280   -1.9212    0.8054 H   0  0  0  0  0  0  0  0  0  0  0  0
    4.3592   -0.2817    1.4723 H   0  0  0  0  0  0  0  0  0  0  0  0
    3.4889   -1.6788    2.1613 H   0  0  0  0  0  0  0  0  0  0  0  0
    2.5174   -1.8386   -0.2757 H   0  0  0  0  0  0  0  0  0  0  0  0
    1.4344    2.3144   -1.2612 H   0  0  0  0  0  0  0  0  0  0  0  0
   -0.2386    4.1206   -1.5046 H   0  0  0  0  0  0  0  0  0  0  0  0
   -2.6303    3.6629   -1.0289 H   0  0  0  0  0  0  0  0  0  0  0  0
   -3.3538    1.4217   -0.3271 H   0  0  0  0  0  0  0  0  0  0  0  0
   -2.9710   -0.7519    0.1551 H   0  0  0  0  0  0  0  0  0  0  0  0
   -2.0073   -1.5837   -1.9855 H   0  0  0  0  0  0  0  0  0  0  0  0
   -2.1270   -2.8288   -0.7331 H   0  0  0  0  0  0  0  0  0  0  0  0
   -0.5589   -2.1229   -1.1241 H   0  0  0  0  0  0  0  0  0  0  0  0
   -0.2742   -1.4579    1.4021 H   0  0  0  0  0  0  0  0  0  0  0  0
   -1.5241   -0.4690    2.1705 H   0  0  0  0  0  0  0  0  0  0  0  0
   -1.8519   -2.1587    1.7572 H   0  0  0  0  0  0  0  0  0  0  0  0
  1  2  1  0
  2  3  1  0
  3  4  2  0
  3  5  1  0
  5  6  1  0
  6  7  2  0
  7  8  1  0
  8  9  2  0
  9 10  1  0
 10 11  2  0
 11 12  1  0
 12 13  1  0
 12 14  1  0
 11  6  1  0
  1 15  1  0
  1 16  1  0
  1 17  1  0
  2 18  1  0
  7 19  1  0
  8 20  1  0
  9 21  1  0
 10 22  1  0
 12 23  1  0
 13 24  1  0
 13 25  1  0
 13 26  1  0
 14 27  1  0
 14 28  1  0
 14 29  1  0
M  END
>  <Energy>  (3) 
-9.72244432914308

>  <Real charge>  (3) 
0

>  <Mult>  (3) 
1

$$$$
mol_1014 205
     RDKit          3D

 29 29  0  0  0  0  0  0  0  0999 V2000
    4.0338   -1.5253    0.0905 C   0  0  0  0  0  0  0  0  0  0  0  0
    2.7450   -1.1087    0.5699 N   0  0  0  0  0  0  0  0  0  0  0  0
    1.9582   -0.2351   -0.1294 C   0  0  0  0  0  0  0  0  0  0  0  0
    2.2181    0.1926   -1.2452 O   0  0  0  0  0  0  0  0  0  0  0  0
    0.8434    0.0780    0.6343 O   0  0  0  0  0  0  0  0  0  0  0  0
   -0.0598    0.9991    0.0789 C   0  0  0  0  0  0  0  0  0  0  0  0
    0.3719    2.3097   -0.1581 C   0  0  0  0  0  0  0  0  0  0  0  0
   -0.5215    3.2540   -0.6559 C   0  0  0  0  0  0  0  0  0  0  0  0
   -1.8438    2.8932   -0.8983 C   0  0  0  0  0  0  0  0  0  0  0  0
   -2.2757    1.5895   -0.6371 C   0  0  0  0  0  0  0  0  0  0  0  0
   -1.3941    0.6153   -0.1334 C   0  0  0  0  0  0  0  0  0  0  0  0
   -1.9364   -0.7771    0.1434 C   0  0  0  0  0  0  0  0  0  0  0  0
   -1.3016   -1.8419   -0.7536 C   0  0  0  0  0  0  0  0  0  0  0  0
   -1.8392   -1.1630    1.6217 C   0  0  0  0  0  0  0  0  0  0  0  0
    4.7659   -0.7543    0.3445 H   0  0  0  0  0  0  0  0  0  0  0  0
    4.0134   -1.6638   -0.9937 H   0  0  0  0  0  0  0  0  0  0  0  0
    4.3012   -2.4636    0.5818 H   0  0  0  0  0  0  0  0  0  0  0  0
    2.4739   -1.2846    1.5270 H   0  0  0  0  0  0  0  0  0  0  0  0
    1.4026    2.5936    0.0338 H   0  0  0  0  0  0  0  0  0  0  0  0
   -0.1862    4.2680   -0.8557 H   0  0  0  0  0  0  0  0  0  0  0  0
   -2.5436    3.6274   -1.2894 H   0  0  0  0  0  0  0  0  0  0  0  0
   -3.3173    1.3404   -0.8309 H   0  0  0  0  0  0  0  0  0  0  0  0
   -3.0082   -0.7743   -0.0990 H   0  0  0  0  0  0  0  0  0  0  0  0
   -0.2479   -2.0122   -0.5159 H   0  0  0  0  0  0  0  0  0  0  0  0
   -1.3659   -1.5559   -1.8092 H   0  0  0  0  0  0  0  0  0  0  0  0
   -1.8204   -2.7995   -0.6344 H   0  0  0  0  0  0  0  0  0  0  0  0
   -2.3649   -2.1067    1.8047 H   0  0  0  0  0  0  0  0  0  0  0  0
   -2.2965   -0.3969    2.2576 H   0  0  0  0  0  0  0  0  0  0  0  0
   -0.8047   -1.2978    1.9514 H   0  0  0  0  0  0  0  0  0  0  0  0
  1  2  1  0
  2  3  1  0
  3  4  2  0
  3  5  1  0
  5  6  1  0
  6  7  2  0
  7  8  1  0
  8  9  2  0
  9 10  1  0
 10 11  2  0
 11 12  1  0
 12 13  1  0
 12 14  1  0
 11  6  1  0
  1 15  1  0
  1 16  1  0
  1 17  1  0
  2 18  1  0
  7 19  1  0
  8 20  1  0
  9 21  1  0
 10 22  1  0
 12 23  1  0
 13 24  1  0
 13 25  1  0
 13 26  1  0
 14 27  1  0
 14 28  1  0
 14 29  1  0
M  END
>  <Energy>  (4) 
-9.676935749732417

>  <Real charge>  (4) 
0

>  <Mult>  (4) 
1

$$$$
