mol_130 167
     RDKit          3D

 23 22  0  0  0  0  0  0  0  0999 V2000
    3.8081    0.3558    0.1982 C   0  0  0  0  0  0  0  0  0  0  0  0
    2.5573   -0.4902    0.0212 C   0  0  0  0  0  0  0  0  0  0  0  0
    1.2898    0.3600    0.1032 C   0  0  0  0  0  0  0  0  0  0  0  0
    0.0340   -0.4948   -0.0753 C   0  0  0  0  0  0  0  0  0  0  0  0
   -1.2345    0.3561    0.0068 C   0  0  0  0  0  0  0  0  0  0  0  0
   -2.4905   -0.4982   -0.1717 C   0  0  0  0  0  0  0  0  0  0  0  0
   -3.7456    0.3537   -0.0889 C   0  0  0  0  0  0  0  0  0  0  0  0
   -5.3199   -0.7679   -0.3204 Br  0  0  0  0  0  0  0  0  0  0  0  0
    3.8099    0.8541    1.1729 H   0  0  0  0  0  0  0  0  0  0  0  0
    3.8765    1.1225   -0.5802 H   0  0  0  0  0  0  0  0  0  0  0  0
    4.7023   -0.2722    0.1360 H   0  0  0  0  0  0  0  0  0  0  0  0
    2.6021   -0.9996   -0.9485 H   0  0  0  0  0  0  0  0  0  0  0  0
    2.5359   -1.2665    0.7949 H   0  0  0  0  0  0  0  0  0  0  0  0
    1.3182    1.1374   -0.6700 H   0  0  0  0  0  0  0  0  0  0  0  0
    1.2520    0.8705    1.0733 H   0  0  0  0  0  0  0  0  0  0  0  0
    0.0057   -1.2720    0.6981 H   0  0  0  0  0  0  0  0  0  0  0  0
    0.0719   -1.0051   -1.0455 H   0  0  0  0  0  0  0  0  0  0  0  0
   -1.2724    0.8664    0.9770 H   0  0  0  0  0  0  0  0  0  0  0  0
   -1.2062    1.1333   -0.7667 H   0  0  0  0  0  0  0  0  0  0  0  0
   -2.4496   -1.0124   -1.1402 H   0  0  0  0  0  0  0  0  0  0  0  0
   -2.5156   -1.2787    0.5992 H   0  0  0  0  0  0  0  0  0  0  0  0
   -3.8482    0.8388    0.8857 H   0  0  0  0  0  0  0  0  0  0  0  0
   -3.7812    1.1089   -0.8789 H   0  0  0  0  0  0  0  0  0  0  0  0
  1  2  1  0
  2  3  1  0
  3  4  1  0
  4  5  1  0
  5  6  1  0
  6  7  1  0
  7  8  1  0
  1  9  1  0
  1 10  1  0
  1 11  1  0
  2 12  1  0
  2 13  1  0
  3 14  1  0
  3 15  1  0
  4 16  1  0
  4 17  1  0
  5 18  1  0
  5 19  1  0
  6 20  1  0
  6 21  1  0
  7 22  1  0
  7 23  1  0
M  END
>  <Energy>  (1) 
-2.9751673088324586

>  <Real charge>  (1) 
0

>  <Mult>  (1) 
1

$$$$
mol_130 58
     RDKit          3D

 23 22  0  0  0  0  0  0  0  0999 V2000
   -3.7994    0.1946    0.2761 C   0  0  0  0  0  0  0  0  0  0  0  0
   -2.5135   -0.4030   -0.2724 C   0  0  0  0  0  0  0  0  0  0  0  0
   -1.2858    0.3639    0.2182 C   0  0  0  0  0  0  0  0  0  0  0  0
    0.0056   -0.2404   -0.3357 C   0  0  0  0  0  0  0  0  0  0  0  0
    1.2351    0.5275    0.1553 C   0  0  0  0  0  0  0  0  0  0  0  0
    2.5268   -0.0795   -0.4028 C   0  0  0  0  0  0  0  0  0  0  0  0
    3.7721    0.6929    0.0041 C   0  0  0  0  0  0  0  0  0  0  0  0
    4.2184    0.3809    1.8729 Br  0  0  0  0  0  0  0  0  0  0  0  0
   -4.6645   -0.3690   -0.0872 H   0  0  0  0  0  0  0  0  0  0  0  0
   -3.9148    1.2359   -0.0412 H   0  0  0  0  0  0  0  0  0  0  0  0
   -3.8101    0.1654    1.3704 H   0  0  0  0  0  0  0  0  0  0  0  0
   -2.5488   -0.3881   -1.3679 H   0  0  0  0  0  0  0  0  0  0  0  0
   -2.4448   -1.4527    0.0359 H   0  0  0  0  0  0  0  0  0  0  0  0
   -1.3614    1.4141   -0.0892 H   0  0  0  0  0  0  0  0  0  0  0  0
   -1.2576    0.3496    1.3146 H   0  0  0  0  0  0  0  0  0  0  0  0
    0.0816   -1.2903   -0.0276 H   0  0  0  0  0  0  0  0  0  0  0  0
   -0.0233   -0.2261   -1.4320 H   0  0  0  0  0  0  0  0  0  0  0  0
    1.2522    0.5160    1.2508 H   0  0  0  0  0  0  0  0  0  0  0  0
    1.1592    1.5765   -0.1559 H   0  0  0  0  0  0  0  0  0  0  0  0
    2.4668   -0.0739   -1.4983 H   0  0  0  0  0  0  0  0  0  0  0  0
    2.6080   -1.1294   -0.0960 H   0  0  0  0  0  0  0  0  0  0  0  0
    4.6419    0.3544   -0.5660 H   0  0  0  0  0  0  0  0  0  0  0  0
    3.6563    1.7722   -0.1261 H   0  0  0  0  0  0  0  0  0  0  0  0
  1  2  1  0
  2  3  1  0
  3  4  1  0
  4  5  1  0
  5  6  1  0
  6  7  1  0
  7  8  1  0
  1  9  1  0
  1 10  1  0
  1 11  1  0
  2 12  1  0
  2 13  1  0
  3 14  1  0
  3 15  1  0
  4 16  1  0
  4 17  1  0
  5 18  1  0
  5 19  1  0
  6 20  1  0
  6 21  1  0
  7 22  1  0
  7 23  1  0
M  END
>  <Energy>  (2) 
-2.5740506122248643

>  <Real charge>  (2) 
0

>  <Mult>  (2) 
1

$$$$
mol_130 271
     RDKit          3D

 23 22  0  0  0  0  0  0  0  0999 V2000
   -3.6951    0.1887    0.2820 C   0  0  0  0  0  0  0  0  0  0  0  0
   -2.2823    0.7457    0.2088 C   0  0  0  0  0  0  0  0  0  0  0  0
   -1.2631   -0.3511   -0.0987 C   0  0  0  0  0  0  0  0  0  0  0  0
    0.1574    0.2136   -0.1720 C   0  0  0  0  0  0  0  0  0  0  0  0
    1.1759   -0.8872   -0.4766 C   0  0  0  0  0  0  0  0  0  0  0  0
    2.6007   -0.3594   -0.6657 C   0  0  0  0  0  0  0  0  0  0  0  0
    3.1854    0.2424    0.6015 C   0  0  0  0  0  0  0  0  0  0  0  0
    5.0388    0.7575    0.2882 Br  0  0  0  0  0  0  0  0  0  0  0  0
   -3.7786   -0.5669    1.0697 H   0  0  0  0  0  0  0  0  0  0  0  0
   -3.9851   -0.2714   -0.6680 H   0  0  0  0  0  0  0  0  0  0  0  0
   -4.4074    0.9898    0.5028 H   0  0  0  0  0  0  0  0  0  0  0  0
   -2.0358    1.2267    1.1625 H   0  0  0  0  0  0  0  0  0  0  0  0
   -2.2409    1.5204   -0.5657 H   0  0  0  0  0  0  0  0  0  0  0  0
   -1.5175   -0.8317   -1.0513 H   0  0  0  0  0  0  0  0  0  0  0  0
   -1.3109   -1.1253    0.6768 H   0  0  0  0  0  0  0  0  0  0  0  0
    0.4002    0.6968    0.7810 H   0  0  0  0  0  0  0  0  0  0  0  0
    0.2058    0.9849   -0.9501 H   0  0  0  0  0  0  0  0  0  0  0  0
    0.8785   -1.4062   -1.3963 H   0  0  0  0  0  0  0  0  0  0  0  0
    1.1646   -1.6351    0.3256 H   0  0  0  0  0  0  0  0  0  0  0  0
    3.2310   -1.1934   -1.0004 H   0  0  0  0  0  0  0  0  0  0  0  0
    2.6134    0.3805   -1.4759 H   0  0  0  0  0  0  0  0  0  0  0  0
    2.6679    1.1537    0.9101 H   0  0  0  0  0  0  0  0  0  0  0  0
    3.1971   -0.4729    1.4282 H   0  0  0  0  0  0  0  0  0  0  0  0
  1  2  1  0
  2  3  1  0
  3  4  1  0
  4  5  1  0
  5  6  1  0
  6  7  1  0
  7  8  1  0
  1  9  1  0
  1 10  1  0
  1 11  1  0
  2 12  1  0
  2 13  1  0
  3 14  1  0
  3 15  1  0
  4 16  1  0
  4 17  1  0
  5 18  1  0
  5 19  1  0
  6 20  1  0
  6 21  1  0
  7 22  1  0
  7 23  1  0
M  END
>  <Energy>  (3) 
-2.210492685366662

>  <Real charge>  (3) 
0

>  <Mult>  (3) 
1

$$$$
mol_130 133
     RDKit          3D

 23 22  0  0  0  0  0  0  0  0999 V2000
   -3.1981   -0.5872    0.5483 C   0  0  0  0  0  0  0  0  0  0  0  0
   -2.6645   -0.2210   -0.8280 C   0  0  0  0  0  0  0  0  0  0  0  0
   -1.3459    0.5543   -0.7859 C   0  0  0  0  0  0  0  0  0  0  0  0
   -0.1783   -0.2649   -0.2315 C   0  0  0  0  0  0  0  0  0  0  0  0
    1.1343    0.5182   -0.3103 C   0  0  0  0  0  0  0  0  0  0  0  0
    2.3031   -0.2965    0.2461 C   0  0  0  0  0  0  0  0  0  0  0  0
    3.6020    0.4873    0.1640 C   0  0  0  0  0  0  0  0  0  0  0  0
    5.0629   -0.5815    0.8805 Br  0  0  0  0  0  0  0  0  0  0  0  0
   -4.1856   -1.0509    0.4567 H   0  0  0  0  0  0  0  0  0  0  0  0
   -3.2984    0.3008    1.1803 H   0  0  0  0  0  0  0  0  0  0  0  0
   -2.5435   -1.3018    1.0557 H   0  0  0  0  0  0  0  0  0  0  0  0
   -3.4135    0.3962   -1.3384 H   0  0  0  0  0  0  0  0  0  0  0  0
   -2.5434   -1.1314   -1.4264 H   0  0  0  0  0  0  0  0  0  0  0  0
   -1.4745    1.4660   -0.1899 H   0  0  0  0  0  0  0  0  0  0  0  0
   -1.1055    0.8758   -1.8069 H   0  0  0  0  0  0  0  0  0  0  0  0
   -0.0827   -1.1990   -0.7981 H   0  0  0  0  0  0  0  0  0  0  0  0
   -0.3717   -0.5357    0.8125 H   0  0  0  0  0  0  0  0  0  0  0  0
    1.3394    0.7882   -1.3534 H   0  0  0  0  0  0  0  0  0  0  0  0
    1.0376    1.4542    0.2534 H   0  0  0  0  0  0  0  0  0  0  0  0
    2.0959   -0.5705    1.2882 H   0  0  0  0  0  0  0  0  0  0  0  0
    2.3955   -1.2351   -0.3146 H   0  0  0  0  0  0  0  0  0  0  0  0
    3.5654    1.4045    0.7580 H   0  0  0  0  0  0  0  0  0  0  0  0
    3.8695    0.7302   -0.8680 H   0  0  0  0  0  0  0  0  0  0  0  0
  1  2  1  0
  2  3  1  0
  3  4  1  0
  4  5  1  0
  5  6  1  0
  6  7  1  0
  7  8  1  0
  1  9  1  0
  1 10  1  0
  1 11  1  0
  2 12  1  0
  2 13  1  0
  3 14  1  0
  3 15  1  0
  4 16  1  0
  4 17  1  0
  5 18  1  0
  5 19  1  0
  6 20  1  0
  6 21  1  0
  7 22  1  0
  7 23  1  0
M  END
>  <Energy>  (4) 
-2.1522871072290792

>  <Real charge>  (4) 
0

>  <Mult>  (4) 
1

$$$$
mol_130 295
     RDKit          3D

 23 22  0  0  0  0  0  0  0  0999 V2000
    3.4810    0.4645    0.1307 C   0  0  0  0  0  0  0  0  0  0  0  0
    2.4488   -0.2038   -0.7637 C   0  0  0  0  0  0  0  0  0  0  0  0
    1.0465   -0.1222   -0.1590 C   0  0  0  0  0  0  0  0  0  0  0  0
    0.0127   -0.7932   -1.0660 C   0  0  0  0  0  0  0  0  0  0  0  0
   -1.3914   -0.8431   -0.4568 C   0  0  0  0  0  0  0  0  0  0  0  0
   -2.0276    0.5370   -0.2786 C   0  0  0  0  0  0  0  0  0  0  0  0
   -3.4587    0.4145    0.2191 C   0  0  0  0  0  0  0  0  0  0  0  0
   -4.2350    2.1867    0.4361 Br  0  0  0  0  0  0  0  0  0  0  0  0
    3.2478    1.5243    0.2749 H   0  0  0  0  0  0  0  0  0  0  0  0
    4.4757    0.3939   -0.3203 H   0  0  0  0  0  0  0  0  0  0  0  0
    3.5185   -0.0162    1.1134 H   0  0  0  0  0  0  0  0  0  0  0  0
    2.7296   -1.2527   -0.9141 H   0  0  0  0  0  0  0  0  0  0  0  0
    2.4585    0.2794   -1.7476 H   0  0  0  0  0  0  0  0  0  0  0  0
    0.7846    0.9304   -0.0046 H   0  0  0  0  0  0  0  0  0  0  0  0
    1.0424   -0.6066    0.8249 H   0  0  0  0  0  0  0  0  0  0  0  0
   -0.0239   -0.2757   -2.0324 H   0  0  0  0  0  0  0  0  0  0  0  0
    0.3318   -1.8226   -1.2715 H   0  0  0  0  0  0  0  0  0  0  0  0
   -2.0275   -1.4474   -1.1157 H   0  0  0  0  0  0  0  0  0  0  0  0
   -1.3550   -1.3619    0.5090 H   0  0  0  0  0  0  0  0  0  0  0  0
   -2.0082    1.0764   -1.2337 H   0  0  0  0  0  0  0  0  0  0  0  0
   -1.4431    1.1305    0.4338 H   0  0  0  0  0  0  0  0  0  0  0  0
   -3.5120   -0.0721    1.1968 H   0  0  0  0  0  0  0  0  0  0  0  0
   -4.0956   -0.1200   -0.4911 H   0  0  0  0  0  0  0  0  0  0  0  0
  1  2  1  0
  2  3  1  0
  3  4  1  0
  4  5  1  0
  5  6  1  0
  6  7  1  0
  7  8  1  0
  1  9  1  0
  1 10  1  0
  1 11  1  0
  2 12  1  0
  2 13  1  0
  3 14  1  0
  3 15  1  0
  4 16  1  0
  4 17  1  0
  5 18  1  0
  5 19  1  0
  6 20  1  0
  6 21  1  0
  7 22  1  0
  7 23  1  0
M  END
>  <Energy>  (5) 
-2.1097261249553867

>  <Real charge>  (5) 
0

>  <Mult>  (5) 
1

$$$$
mol_130 353
     RDKit          3D

 23 22  0  0  0  0  0  0  0  0999 V2000
   -3.5176   -0.2318    0.3810 C   0  0  0  0  0  0  0  0  0  0  0  0
   -2.0435   -0.5441    0.1722 C   0  0  0  0  0  0  0  0  0  0  0  0
   -1.4555    0.2829   -0.9717 C   0  0  0  0  0  0  0  0  0  0  0  0
   -0.0030   -0.0757   -1.2983 C   0  0  0  0  0  0  0  0  0  0  0  0
    0.9757    0.2652   -0.1724 C   0  0  0  0  0  0  0  0  0  0  0  0
    2.4215   -0.0062   -0.5939 C   0  0  0  0  0  0  0  0  0  0  0  0
    3.3890    0.3300    0.5283 C   0  0  0  0  0  0  0  0  0  0  0  0
    5.2144   -0.0281   -0.0459 Br  0  0  0  0  0  0  0  0  0  0  0  0
   -4.0987   -0.4603   -0.5181 H   0  0  0  0  0  0  0  0  0  0  0  0
   -3.9186   -0.8301    1.2052 H   0  0  0  0  0  0  0  0  0  0  0  0
   -3.6636    0.8251    0.6258 H   0  0  0  0  0  0  0  0  0  0  0  0
   -1.9298   -1.6127   -0.0432 H   0  0  0  0  0  0  0  0  0  0  0  0
   -1.5076   -0.3398    1.1051 H   0  0  0  0  0  0  0  0  0  0  0  0
   -2.0577    0.1231   -1.8749 H   0  0  0  0  0  0  0  0  0  0  0  0
   -1.5257    1.3508   -0.7314 H   0  0  0  0  0  0  0  0  0  0  0  0
    0.2881    0.4720   -2.2033 H   0  0  0  0  0  0  0  0  0  0  0  0
    0.0668   -1.1433   -1.5396 H   0  0  0  0  0  0  0  0  0  0  0  0
    0.8662    1.3211    0.1031 H   0  0  0  0  0  0  0  0  0  0  0  0
    0.7457   -0.3296    0.7186 H   0  0  0  0  0  0  0  0  0  0  0  0
    2.5284   -1.0607   -0.8780 H   0  0  0  0  0  0  0  0  0  0  0  0
    2.6616    0.5869   -1.4853 H   0  0  0  0  0  0  0  0  0  0  0  0
    3.2151   -0.2831    1.4168 H   0  0  0  0  0  0  0  0  0  0  0  0
    3.3490    1.3882    0.8005 H   0  0  0  0  0  0  0  0  0  0  0  0
  1  2  1  0
  2  3  1  0
  3  4  1  0
  4  5  1  0
  5  6  1  0
  6  7  1  0
  7  8  1  0
  1  9  1  0
  1 10  1  0
  1 11  1  0
  2 12  1  0
  2 13  1  0
  3 14  1  0
  3 15  1  0
  4 16  1  0
  4 17  1  0
  5 18  1  0
  5 19  1  0
  6 20  1  0
  6 21  1  0
  7 22  1  0
  7 23  1  0
M  END
>  <Energy>  (6) 
-2.101177410302211

>  <Real charge>  (6) 
0

>  <Mult>  (6) 
1

$$$$
