mol_1000 85
     RDKit          3D

 16 16  0  0  0  0  0  0  0  0999 V2000
   -2.4678   -0.0889    0.1351 C   0  0  0  0  0  0  0  0  0  0  0  0
   -0.9722   -0.0617    0.0229 C   0  0  0  0  0  0  0  0  0  0  0  0
   -0.2574   -1.2440   -0.2091 C   0  0  0  0  0  0  0  0  0  0  0  0
    1.1363   -1.2234   -0.2821 C   0  0  0  0  0  0  0  0  0  0  0  0
    1.8171   -0.0243   -0.1130 C   0  0  0  0  0  0  0  0  0  0  0  0
    3.1782   -0.0493   -0.1916 O   0  0  0  0  0  0  0  0  0  0  0  0
    1.1268    1.1580    0.1324 C   0  0  0  0  0  0  0  0  0  0  0  0
   -0.2682    1.1364    0.2053 C   0  0  0  0  0  0  0  0  0  0  0  0
   -2.8927   -0.8761   -0.4966 H   0  0  0  0  0  0  0  0  0  0  0  0
   -2.9015    0.8610   -0.1946 H   0  0  0  0  0  0  0  0  0  0  0  0
   -2.7618   -0.2709    1.1734 H   0  0  0  0  0  0  0  0  0  0  0  0
   -0.7811   -2.1887   -0.3353 H   0  0  0  0  0  0  0  0  0  0  0  0
    1.6881   -2.1403   -0.4674 H   0  0  0  0  0  0  0  0  0  0  0  0
    3.5103    0.8530   -0.0562 H   0  0  0  0  0  0  0  0  0  0  0  0
    1.6507    2.0979    0.2718 H   0  0  0  0  0  0  0  0  0  0  0  0
   -0.8047    2.0613    0.4049 H   0  0  0  0  0  0  0  0  0  0  0  0
  1  2  1  0
  2  3  2  0
  3  4  1  0
  4  5  2  0
  5  6  1  0
  5  7  1  0
  7  8  2  0
  8  2  1  0
  1  9  1  0
  1 10  1  0
  1 11  1  0
  3 12  1  0
  4 13  1  0
  6 14  1  0
  7 15  1  0
  8 16  1  0
M  END
>  <Energy>  (1) 
7.798632662798539

>  <Real charge>  (1) 
0

>  <Mult>  (1) 
1

$$$$
