mol_121 30
     RDKit          3D

 18 17  0  0  0  0  0  0  0  0999 V2000
   -2.5638   -0.4925    0.1261 C   0  0  0  0  0  0  0  0  0  0  0  0
   -1.1287   -0.3399    0.6067 C   0  0  0  0  0  0  0  0  0  0  0  0
   -0.2315    0.2381   -0.4904 C   0  0  0  0  0  0  0  0  0  0  0  0
    1.1917    0.4495   -0.0262 C   0  0  0  0  0  0  0  0  0  0  0  0
    1.6931    1.6804    0.1676 C   0  0  0  0  0  0  0  0  0  0  0  0
    2.0314   -0.7814    0.1722 C   0  0  0  0  0  0  0  0  0  0  0  0
   -2.6191   -1.1651   -0.7359 H   0  0  0  0  0  0  0  0  0  0  0  0
   -3.1879   -0.9091    0.9229 H   0  0  0  0  0  0  0  0  0  0  0  0
   -2.9856    0.4749   -0.1646 H   0  0  0  0  0  0  0  0  0  0  0  0
   -0.7582   -1.3208    0.9258 H   0  0  0  0  0  0  0  0  0  0  0  0
   -1.1132    0.3133    1.4875 H   0  0  0  0  0  0  0  0  0  0  0  0
   -0.6584    1.1880   -0.8379 H   0  0  0  0  0  0  0  0  0  0  0  0
   -0.2280   -0.4280   -1.3623 H   0  0  0  0  0  0  0  0  0  0  0  0
    1.0906    2.5706    0.0136 H   0  0  0  0  0  0  0  0  0  0  0  0
    2.7191    1.8329    0.4888 H   0  0  0  0  0  0  0  0  0  0  0  0
    1.6300   -1.3971    0.9826 H   0  0  0  0  0  0  0  0  0  0  0  0
    3.0675   -0.5339    0.4273 H   0  0  0  0  0  0  0  0  0  0  0  0
    2.0512   -1.3797   -0.7445 H   0  0  0  0  0  0  0  0  0  0  0  0
  1  2  1  0
  2  3  1  0
  3  4  1  0
  4  5  2  3
  4  6  1  0
  1  7  1  0
  1  8  1  0
  1  9  1  0
  2 10  1  0
  2 11  1  0
  3 12  1  0
  3 13  1  0
  5 14  1  0
  5 15  1  0
  6 16  1  0
  6 17  1  0
  6 18  1  0
M  END
>  <Energy>  (1) 
6.921846599642073

>  <Real charge>  (1) 
0

>  <Mult>  (1) 
1

$$$$
mol_121 20
     RDKit          3D

 18 17  0  0  0  0  0  0  0  0999 V2000
    2.0303    0.0496   -0.3669 C   0  0  0  0  0  0  0  0  0  0  0  0
    1.1901   -0.9408    0.4264 C   0  0  0  0  0  0  0  0  0  0  0  0
    0.0383   -0.2820    1.1933 C   0  0  0  0  0  0  0  0  0  0  0  0
   -0.9922    0.3982    0.3199 C   0  0  0  0  0  0  0  0  0  0  0  0
   -1.1707    1.7293    0.3477 C   0  0  0  0  0  0  0  0  0  0  0  0
   -1.8346   -0.4887   -0.5536 C   0  0  0  0  0  0  0  0  0  0  0  0
    1.4498    0.5167   -1.1682 H   0  0  0  0  0  0  0  0  0  0  0  0
    2.4231    0.8391    0.2818 H   0  0  0  0  0  0  0  0  0  0  0  0
    2.8804   -0.4637   -0.8277 H   0  0  0  0  0  0  0  0  0  0  0  0
    0.8082   -1.7158   -0.2478 H   0  0  0  0  0  0  0  0  0  0  0  0
    1.8401   -1.4497    1.1485 H   0  0  0  0  0  0  0  0  0  0  0  0
   -0.4686   -1.0465    1.7959 H   0  0  0  0  0  0  0  0  0  0  0  0
    0.4589    0.4327    1.9128 H   0  0  0  0  0  0  0  0  0  0  0  0
   -0.5707    2.3702    0.9868 H   0  0  0  0  0  0  0  0  0  0  0  0
   -1.9192    2.2162   -0.2701 H   0  0  0  0  0  0  0  0  0  0  0  0
   -2.3317   -1.2551    0.0498 H   0  0  0  0  0  0  0  0  0  0  0  0
   -2.6134    0.0742   -1.0793 H   0  0  0  0  0  0  0  0  0  0  0  0
   -1.2181   -0.9841   -1.3097 H   0  0  0  0  0  0  0  0  0  0  0  0
  1  2  1  0
  2  3  1  0
  3  4  1  0
  4  5  2  3
  4  6  1  0
  1  7  1  0
  1  8  1  0
  1  9  1  0
  2 10  1  0
  2 11  1  0
  3 12  1  0
  3 13  1  0
  5 14  1  0
  5 15  1  0
  6 16  1  0
  6 17  1  0
  6 18  1  0
M  END
>  <Energy>  (2) 
7.023527023532354

>  <Real charge>  (2) 
0

>  <Mult>  (2) 
1

$$$$
mol_121 105
     RDKit          3D

 18 17  0  0  0  0  0  0  0  0999 V2000
    2.6502   -0.3730   -0.0206 C   0  0  0  0  0  0  0  0  0  0  0  0
    1.3634    0.4372   -0.0820 C   0  0  0  0  0  0  0  0  0  0  0  0
    0.1305   -0.4737   -0.1043 C   0  0  0  0  0  0  0  0  0  0  0  0
   -1.2241    0.2054   -0.1653 C   0  0  0  0  0  0  0  0  0  0  0  0
   -1.4228    1.5337   -0.2008 C   0  0  0  0  0  0  0  0  0  0  0  0
   -2.3949   -0.7427   -0.1847 C   0  0  0  0  0  0  0  0  0  0  0  0
    3.5175    0.2944   -0.0054 H   0  0  0  0  0  0  0  0  0  0  0  0
    2.6817   -0.9915    0.8821 H   0  0  0  0  0  0  0  0  0  0  0  0
    2.7422   -1.0299   -0.8914 H   0  0  0  0  0  0  0  0  0  0  0  0
    1.3250    1.1039    0.7876 H   0  0  0  0  0  0  0  0  0  0  0  0
    1.3853    1.0656   -0.9803 H   0  0  0  0  0  0  0  0  0  0  0  0
    0.2114   -1.1455   -0.9689 H   0  0  0  0  0  0  0  0  0  0  0  0
    0.1514   -1.1073    0.7920 H   0  0  0  0  0  0  0  0  0  0  0  0
   -2.4236    1.9543   -0.2441 H   0  0  0  0  0  0  0  0  0  0  0  0
   -0.6062    2.2474   -0.1884 H   0  0  0  0  0  0  0  0  0  0  0  0
   -2.3361   -1.4003   -1.0581 H   0  0  0  0  0  0  0  0  0  0  0  0
   -2.3967   -1.3618    0.7184 H   0  0  0  0  0  0  0  0  0  0  0  0
   -3.3542   -0.2162   -0.2288 H   0  0  0  0  0  0  0  0  0  0  0  0
  1  2  1  0
  2  3  1  0
  3  4  1  0
  4  5  2  3
  4  6  1  0
  1  7  1  0
  1  8  1  0
  1  9  1  0
  2 10  1  0
  2 11  1  0
  3 12  1  0
  3 13  1  0
  5 14  1  0
  5 15  1  0
  6 16  1  0
  6 17  1  0
  6 18  1  0
M  END
>  <Energy>  (3) 
7.029979129530563

>  <Real charge>  (3) 
0

>  <Mult>  (3) 
1

$$$$
