mol_17 28
     RDKit          3D

 18 17  0  0  0  0  0  0  0  0999 V2000
    2.1235    0.0173   -0.2222 C   0  0  0  0  0  0  0  0  0  0  0  0
    0.8003   -0.6597   -0.5497 C   0  0  0  0  0  0  0  0  0  0  0  0
   -0.3206   -0.3404    0.4583 C   0  0  0  0  0  0  0  0  0  0  0  0
   -1.5698   -1.1533    0.0990 C   0  0  0  0  0  0  0  0  0  0  0  0
   -0.6615    1.1538    0.5352 C   0  0  0  0  0  0  0  0  0  0  0  0
   -1.0324    1.6538   -0.7417 O   0  0  0  0  0  0  0  0  0  0  0  0
    2.4407   -0.2128    0.7997 H   0  0  0  0  0  0  0  0  0  0  0  0
    2.0563    1.1037   -0.3299 H   0  0  0  0  0  0  0  0  0  0  0  0
    2.9033   -0.3339   -0.9058 H   0  0  0  0  0  0  0  0  0  0  0  0
    0.4951   -0.3788   -1.5650 H   0  0  0  0  0  0  0  0  0  0  0  0
    0.9674   -1.7442   -0.5639 H   0  0  0  0  0  0  0  0  0  0  0  0
    0.0073   -0.6604    1.4558 H   0  0  0  0  0  0  0  0  0  0  0  0
   -1.9400   -0.9032   -0.9009 H   0  0  0  0  0  0  0  0  0  0  0  0
   -2.3755   -0.9652    0.8166 H   0  0  0  0  0  0  0  0  0  0  0  0
   -1.3523   -2.2266    0.1188 H   0  0  0  0  0  0  0  0  0  0  0  0
   -1.4960    1.3196    1.2253 H   0  0  0  0  0  0  0  0  0  0  0  0
    0.1923    1.7327    0.9005 H   0  0  0  0  0  0  0  0  0  0  0  0
   -1.2380    2.5976   -0.6302 H   0  0  0  0  0  0  0  0  0  0  0  0
  1  2  1  0
  2  3  1  0
  3  4  1  0
  3  5  1  0
  5  6  1  0
  1  7  1  0
  1  8  1  0
  1  9  1  0
  2 10  1  0
  2 11  1  0
  3 12  1  0
  4 13  1  0
  4 14  1  0
  4 15  1  0
  5 16  1  0
  5 17  1  0
  6 18  1  0
M  END
>  <Energy>  (1) 
3.7172384922273

>  <Real charge>  (1) 
0

>  <Mult>  (1) 
1

$$$$
mol_17 200
     RDKit          3D

 18 17  0  0  0  0  0  0  0  0999 V2000
   -2.2354    0.1934   -0.4332 C   0  0  0  0  0  0  0  0  0  0  0  0
   -0.8059    0.6995   -0.5647 C   0  0  0  0  0  0  0  0  0  0  0  0
    0.2545   -0.3130   -0.0968 C   0  0  0  0  0  0  0  0  0  0  0  0
    0.1245   -0.6370    1.3956 C   0  0  0  0  0  0  0  0  0  0  0  0
    1.6568    0.2267   -0.4113 C   0  0  0  0  0  0  0  0  0  0  0  0
    2.6360   -0.7621   -0.1204 O   0  0  0  0  0  0  0  0  0  0  0  0
   -2.9294    0.9105   -0.8836 H   0  0  0  0  0  0  0  0  0  0  0  0
   -2.3616   -0.7662   -0.9443 H   0  0  0  0  0  0  0  0  0  0  0  0
   -2.5244    0.0707    0.6145 H   0  0  0  0  0  0  0  0  0  0  0  0
   -0.6284    0.9422   -1.6198 H   0  0  0  0  0  0  0  0  0  0  0  0
   -0.7043    1.6372   -0.0046 H   0  0  0  0  0  0  0  0  0  0  0  0
    0.1203   -1.2533   -0.6475 H   0  0  0  0  0  0  0  0  0  0  0  0
    0.2056    0.2696    2.0049 H   0  0  0  0  0  0  0  0  0  0  0  0
    0.9057   -1.3324    1.7199 H   0  0  0  0  0  0  0  0  0  0  0  0
   -0.8361   -1.1115    1.6173 H   0  0  0  0  0  0  0  0  0  0  0  0
    1.8770    1.1209    0.1818 H   0  0  0  0  0  0  0  0  0  0  0  0
    1.7424    0.4819   -1.4728 H   0  0  0  0  0  0  0  0  0  0  0  0
    3.5027   -0.3770   -0.3350 H   0  0  0  0  0  0  0  0  0  0  0  0
  1  2  1  0
  2  3  1  0
  3  4  1  0
  3  5  1  0
  5  6  1  0
  1  7  1  0
  1  8  1  0
  1  9  1  0
  2 10  1  0
  2 11  1  0
  3 12  1  0
  4 13  1  0
  4 14  1  0
  4 15  1  0
  5 16  1  0
  5 17  1  0
  6 18  1  0
M  END
>  <Energy>  (2) 
3.75342292485424

>  <Real charge>  (2) 
0

>  <Mult>  (2) 
1

$$$$
mol_17 138
     RDKit          3D

 18 17  0  0  0  0  0  0  0  0999 V2000
    1.9082   -1.0849   -0.1757 C   0  0  0  0  0  0  0  0  0  0  0  0
    1.1258    0.1709   -0.5329 C   0  0  0  0  0  0  0  0  0  0  0  0
   -0.1296    0.3845    0.3316 C   0  0  0  0  0  0  0  0  0  0  0  0
   -0.7386    1.7578    0.0210 C   0  0  0  0  0  0  0  0  0  0  0  0
   -1.1688   -0.7259    0.1311 C   0  0  0  0  0  0  0  0  0  0  0  0
   -2.2862   -0.5055    0.9836 O   0  0  0  0  0  0  0  0  0  0  0  0
    2.8438   -1.1170   -0.7435 H   0  0  0  0  0  0  0  0  0  0  0  0
    1.3471   -1.9921   -0.4172 H   0  0  0  0  0  0  0  0  0  0  0  0
    2.1584   -1.1029    0.8897 H   0  0  0  0  0  0  0  0  0  0  0  0
    0.8503    0.1331   -1.5939 H   0  0  0  0  0  0  0  0  0  0  0  0
    1.7951    1.0319   -0.4121 H   0  0  0  0  0  0  0  0  0  0  0  0
    0.1634    0.3973    1.3897 H   0  0  0  0  0  0  0  0  0  0  0  0
   -0.0013    2.5532    0.1743 H   0  0  0  0  0  0  0  0  0  0  0  0
   -1.5908    1.9719    0.6741 H   0  0  0  0  0  0  0  0  0  0  0  0
   -1.0839    1.8117   -1.0171 H   0  0  0  0  0  0  0  0  0  0  0  0
   -1.5221   -0.7507   -0.9053 H   0  0  0  0  0  0  0  0  0  0  0  0
   -0.7539   -1.7058    0.3830 H   0  0  0  0  0  0  0  0  0  0  0  0
   -2.9168   -1.2273    0.8196 H   0  0  0  0  0  0  0  0  0  0  0  0
  1  2  1  0
  2  3  1  0
  3  4  1  0
  3  5  1  0
  5  6  1  0
  1  7  1  0
  1  8  1  0
  1  9  1  0
  2 10  1  0
  2 11  1  0
  3 12  1  0
  4 13  1  0
  4 14  1  0
  4 15  1  0
  5 16  1  0
  5 17  1  0
  6 18  1  0
M  END
>  <Energy>  (3) 
3.778590214066181

>  <Real charge>  (3) 
0

>  <Mult>  (3) 
1

$$$$
mol_17 288
     RDKit          3D

 18 17  0  0  0  0  0  0  0  0999 V2000
   -2.1726   -0.4247    0.0287 C   0  0  0  0  0  0  0  0  0  0  0  0
   -0.7059   -0.8157    0.1475 C   0  0  0  0  0  0  0  0  0  0  0  0
    0.2687    0.2989   -0.2846 C   0  0  0  0  0  0  0  0  0  0  0  0
    0.1352    1.5509    0.5840 C   0  0  0  0  0  0  0  0  0  0  0  0
    1.7189   -0.2027   -0.2424 C   0  0  0  0  0  0  0  0  0  0  0  0
    1.8927   -1.2700   -1.1653 O   0  0  0  0  0  0  0  0  0  0  0  0
   -2.4061   -0.0757   -0.9820 H   0  0  0  0  0  0  0  0  0  0  0  0
   -2.4382    0.3629    0.7397 H   0  0  0  0  0  0  0  0  0  0  0  0
   -2.8091   -1.2893    0.2437 H   0  0  0  0  0  0  0  0  0  0  0  0
   -0.4983   -1.1144    1.1824 H   0  0  0  0  0  0  0  0  0  0  0  0
   -0.5444   -1.7043   -0.4745 H   0  0  0  0  0  0  0  0  0  0  0  0
    0.0320    0.5666   -1.3228 H   0  0  0  0  0  0  0  0  0  0  0  0
    0.8724    2.3067    0.2920 H   0  0  0  0  0  0  0  0  0  0  0  0
    0.2918    1.3175    1.6426 H   0  0  0  0  0  0  0  0  0  0  0  0
   -0.8532    2.0077    0.4769 H   0  0  0  0  0  0  0  0  0  0  0  0
    1.9832   -0.5603    0.7587 H   0  0  0  0  0  0  0  0  0  0  0  0
    2.4120    0.5982   -0.5210 H   0  0  0  0  0  0  0  0  0  0  0  0
    2.8211   -1.5523   -1.1034 H   0  0  0  0  0  0  0  0  0  0  0  0
  1  2  1  0
  2  3  1  0
  3  4  1  0
  3  5  1  0
  5  6  1  0
  1  7  1  0
  1  8  1  0
  1  9  1  0
  2 10  1  0
  2 11  1  0
  3 12  1  0
  4 13  1  0
  4 14  1  0
  4 15  1  0
  5 16  1  0
  5 17  1  0
  6 18  1  0
M  END
>  <Energy>  (4) 
3.7849778355454236

>  <Real charge>  (4) 
0

>  <Mult>  (4) 
1

$$$$
mol_17 49
     RDKit          3D

 18 17  0  0  0  0  0  0  0  0999 V2000
    2.2099    0.0164   -0.3235 C   0  0  0  0  0  0  0  0  0  0  0  0
    1.0214    0.1084    0.6230 C   0  0  0  0  0  0  0  0  0  0  0  0
   -0.3356    0.2095   -0.0958 C   0  0  0  0  0  0  0  0  0  0  0  0
   -0.6412   -1.0374   -0.9326 C   0  0  0  0  0  0  0  0  0  0  0  0
   -1.4478    0.4522    0.9353 C   0  0  0  0  0  0  0  0  0  0  0  0
   -2.6976    0.6738    0.2942 O   0  0  0  0  0  0  0  0  0  0  0  0
    2.2081   -0.9241   -0.8819 H   0  0  0  0  0  0  0  0  0  0  0  0
    2.2093    0.8458   -1.0376 H   0  0  0  0  0  0  0  0  0  0  0  0
    3.1450    0.0595    0.2444 H   0  0  0  0  0  0  0  0  0  0  0  0
    1.1591    0.9951    1.2544 H   0  0  0  0  0  0  0  0  0  0  0  0
    1.0287   -0.7598    1.2935 H   0  0  0  0  0  0  0  0  0  0  0  0
   -0.3132    1.0658   -0.7825 H   0  0  0  0  0  0  0  0  0  0  0  0
   -0.6361   -1.9401   -0.3124 H   0  0  0  0  0  0  0  0  0  0  0  0
   -1.6232   -0.9622   -1.4113 H   0  0  0  0  0  0  0  0  0  0  0  0
    0.0936   -1.1694   -1.7325 H   0  0  0  0  0  0  0  0  0  0  0  0
   -1.2274    1.3303    1.5517 H   0  0  0  0  0  0  0  0  0  0  0  0
   -1.5591   -0.4082    1.6035 H   0  0  0  0  0  0  0  0  0  0  0  0
   -2.5938    1.4443   -0.2898 H   0  0  0  0  0  0  0  0  0  0  0  0
  1  2  1  0
  2  3  1  0
  3  4  1  0
  3  5  1  0
  5  6  1  0
  1  7  1  0
  1  8  1  0
  1  9  1  0
  2 10  1  0
  2 11  1  0
  3 12  1  0
  4 13  1  0
  4 14  1  0
  4 15  1  0
  5 16  1  0
  5 17  1  0
  6 18  1  0
M  END
>  <Energy>  (5) 
3.8440639483517387

>  <Real charge>  (5) 
0

>  <Mult>  (5) 
1

$$$$
mol_17 100
     RDKit          3D

 18 17  0  0  0  0  0  0  0  0999 V2000
    2.0903    0.1593    0.6364 C   0  0  0  0  0  0  0  0  0  0  0  0
    0.6191    0.5488    0.5914 C   0  0  0  0  0  0  0  0  0  0  0  0
   -0.2670   -0.4823   -0.1345 C   0  0  0  0  0  0  0  0  0  0  0  0
    0.0946   -0.5954   -1.6187 C   0  0  0  0  0  0  0  0  0  0  0  0
   -1.7525   -0.1287    0.0302 C   0  0  0  0  0  0  0  0  0  0  0  0
   -2.0410    1.1334   -0.5552 O   0  0  0  0  0  0  0  0  0  0  0  0
    2.5380    0.1624   -0.3616 H   0  0  0  0  0  0  0  0  0  0  0  0
    2.2207   -0.8357    1.0733 H   0  0  0  0  0  0  0  0  0  0  0  0
    2.6483    0.8740    1.2501 H   0  0  0  0  0  0  0  0  0  0  0  0
    0.2653    0.6603    1.6239 H   0  0  0  0  0  0  0  0  0  0  0  0
    0.5269    1.5337    0.1180 H   0  0  0  0  0  0  0  0  0  0  0  0
   -0.1106   -1.4649    0.3290 H   0  0  0  0  0  0  0  0  0  0  0  0
    0.0518    0.3778   -2.1191 H   0  0  0  0  0  0  0  0  0  0  0  0
   -0.5949   -1.2722   -2.1348 H   0  0  0  0  0  0  0  0  0  0  0  0
    1.1029   -0.9998   -1.7507 H   0  0  0  0  0  0  0  0  0  0  0  0
   -2.3817   -0.8846   -0.4518 H   0  0  0  0  0  0  0  0  0  0  0  0
   -2.0210   -0.0870    1.0912 H   0  0  0  0  0  0  0  0  0  0  0  0
   -2.9892    1.3009   -0.4198 H   0  0  0  0  0  0  0  0  0  0  0  0
  1  2  1  0
  2  3  1  0
  3  4  1  0
  3  5  1  0
  5  6  1  0
  1  7  1  0
  1  8  1  0
  1  9  1  0
  2 10  1  0
  2 11  1  0
  3 12  1  0
  4 13  1  0
  4 14  1  0
  4 15  1  0
  5 16  1  0
  5 17  1  0
  6 18  1  0
M  END
>  <Energy>  (6) 
3.8540659427496915

>  <Real charge>  (6) 
0

>  <Mult>  (6) 
1

$$$$
mol_17 2
     RDKit          3D

 18 17  0  0  0  0  0  0  0  0999 V2000
    1.6905   -0.3777    1.1553 C   0  0  0  0  0  0  0  0  0  0  0  0
    0.9057    0.5688    0.2585 C   0  0  0  0  0  0  0  0  0  0  0  0
   -0.1065   -0.1466   -0.6567 C   0  0  0  0  0  0  0  0  0  0  0  0
   -0.7773    0.8850   -1.5709 C   0  0  0  0  0  0  0  0  0  0  0  0
   -1.1680   -0.9544    0.1038 C   0  0  0  0  0  0  0  0  0  0  0  0
   -1.9348   -0.1363    0.9760 O   0  0  0  0  0  0  0  0  0  0  0  0
    2.4662    0.1749    1.6954 H   0  0  0  0  0  0  0  0  0  0  0  0
    2.1798   -1.1609    0.5680 H   0  0  0  0  0  0  0  0  0  0  0  0
    1.0456   -0.8526    1.9003 H   0  0  0  0  0  0  0  0  0  0  0  0
    1.6221    1.1170   -0.3666 H   0  0  0  0  0  0  0  0  0  0  0  0
    0.4015    1.3186    0.8796 H   0  0  0  0  0  0  0  0  0  0  0  0
    0.4458   -0.8469   -1.2969 H   0  0  0  0  0  0  0  0  0  0  0  0
   -1.4805    0.3989   -2.2554 H   0  0  0  0  0  0  0  0  0  0  0  0
   -0.0308    1.4075   -2.1788 H   0  0  0  0  0  0  0  0  0  0  0  0
   -1.3279    1.6363   -0.9949 H   0  0  0  0  0  0  0  0  0  0  0  0
   -0.7177   -1.7625    0.6889 H   0  0  0  0  0  0  0  0  0  0  0  0
   -1.8614   -1.4220   -0.6037 H   0  0  0  0  0  0  0  0  0  0  0  0
   -1.3524    0.1531    1.6981 H   0  0  0  0  0  0  0  0  0  0  0  0
  1  2  1  0
  2  3  1  0
  3  4  1  0
  3  5  1  0
  5  6  1  0
  1  7  1  0
  1  8  1  0
  1  9  1  0
  2 10  1  0
  2 11  1  0
  3 12  1  0
  4 13  1  0
  4 14  1  0
  4 15  1  0
  5 16  1  0
  5 17  1  0
  6 18  1  0
M  END
>  <Energy>  (7) 
4.080998304419573

>  <Real charge>  (7) 
0

>  <Mult>  (7) 
1

$$$$
mol_17 312
     RDKit          3D

 18 17  0  0  0  0  0  0  0  0999 V2000
    1.9817   -0.2363   -0.0595 C   0  0  0  0  0  0  0  0  0  0  0  0
    0.9787    0.5936    0.7301 C   0  0  0  0  0  0  0  0  0  0  0  0
   -0.4865    0.4632    0.2761 C   0  0  0  0  0  0  0  0  0  0  0  0
   -0.6910    0.9708   -1.1549 C   0  0  0  0  0  0  0  0  0  0  0  0
   -1.0151   -0.9667    0.4357 C   0  0  0  0  0  0  0  0  0  0  0  0
   -2.4208   -0.9859    0.2176 O   0  0  0  0  0  0  0  0  0  0  0  0
    1.7655   -1.3059    0.0139 H   0  0  0  0  0  0  0  0  0  0  0  0
    2.9899   -0.0755    0.3366 H   0  0  0  0  0  0  0  0  0  0  0  0
    1.9939    0.0453   -1.1163 H   0  0  0  0  0  0  0  0  0  0  0  0
    1.0494    0.3115    1.7880 H   0  0  0  0  0  0  0  0  0  0  0  0
    1.2771    1.6478    0.6733 H   0  0  0  0  0  0  0  0  0  0  0  0
   -1.0873    1.1152    0.9250 H   0  0  0  0  0  0  0  0  0  0  0  0
   -0.2133    0.3147   -1.8895 H   0  0  0  0  0  0  0  0  0  0  0  0
   -0.2757    1.9771   -1.2736 H   0  0  0  0  0  0  0  0  0  0  0  0
   -1.7567    1.0234   -1.4014 H   0  0  0  0  0  0  0  0  0  0  0  0
   -0.5501   -1.6498   -0.2821 H   0  0  0  0  0  0  0  0  0  0  0  0
   -0.8251   -1.3368    1.4486 H   0  0  0  0  0  0  0  0  0  0  0  0
   -2.7145   -1.9057    0.3324 H   0  0  0  0  0  0  0  0  0  0  0  0
  1  2  1  0
  2  3  1  0
  3  4  1  0
  3  5  1  0
  5  6  1  0
  1  7  1  0
  1  8  1  0
  1  9  1  0
  2 10  1  0
  2 11  1  0
  3 12  1  0
  4 13  1  0
  4 14  1  0
  4 15  1  0
  5 16  1  0
  5 17  1  0
  6 18  1  0
M  END
>  <Energy>  (8) 
4.092531973416217

>  <Real charge>  (8) 
0

>  <Mult>  (8) 
1

$$$$
mol_17 180
     RDKit          3D

 18 17  0  0  0  0  0  0  0  0999 V2000
   -1.8596   -1.0885    0.1765 C   0  0  0  0  0  0  0  0  0  0  0  0
   -0.8942   -0.0430    0.7161 C   0  0  0  0  0  0  0  0  0  0  0  0
    0.0733    0.5085   -0.3486 C   0  0  0  0  0  0  0  0  0  0  0  0
    0.9181    1.6295    0.2672 C   0  0  0  0  0  0  0  0  0  0  0  0
    0.9710   -0.5703   -0.9720 C   0  0  0  0  0  0  0  0  0  0  0  0
    1.6889   -1.3005    0.0125 O   0  0  0  0  0  0  0  0  0  0  0  0
   -2.4117   -0.7054   -0.6875 H   0  0  0  0  0  0  0  0  0  0  0  0
   -2.5863   -1.3615    0.9486 H   0  0  0  0  0  0  0  0  0  0  0  0
   -1.3370   -2.0020   -0.1216 H   0  0  0  0  0  0  0  0  0  0  0  0
   -1.4845    0.7870    1.1246 H   0  0  0  0  0  0  0  0  0  0  0  0
   -0.3352   -0.4707    1.5571 H   0  0  0  0  0  0  0  0  0  0  0  0
   -0.5188    0.9539   -1.1588 H   0  0  0  0  0  0  0  0  0  0  0  0
    1.4988    1.2758    1.1253 H   0  0  0  0  0  0  0  0  0  0  0  0
    0.2782    2.4488    0.6125 H   0  0  0  0  0  0  0  0  0  0  0  0
    1.6150    2.0418   -0.4701 H   0  0  0  0  0  0  0  0  0  0  0  0
    0.3727   -1.2849   -1.5457 H   0  0  0  0  0  0  0  0  0  0  0  0
    1.6918   -0.1269   -1.6679 H   0  0  0  0  0  0  0  0  0  0  0  0
    2.3196   -0.6917    0.4320 H   0  0  0  0  0  0  0  0  0  0  0  0
  1  2  1  0
  2  3  1  0
  3  4  1  0
  3  5  1  0
  5  6  1  0
  1  7  1  0
  1  8  1  0
  1  9  1  0
  2 10  1  0
  2 11  1  0
  3 12  1  0
  4 13  1  0
  4 14  1  0
  4 15  1  0
  5 16  1  0
  5 17  1  0
  6 18  1  0
M  END
>  <Energy>  (9) 
4.103873428684718

>  <Real charge>  (9) 
0

>  <Mult>  (9) 
1

$$$$
mol_17 211
     RDKit          3D

 18 17  0  0  0  0  0  0  0  0999 V2000
   -1.7489   -0.0821    0.7518 C   0  0  0  0  0  0  0  0  0  0  0  0
   -1.0905    0.1431   -0.6024 C   0  0  0  0  0  0  0  0  0  0  0  0
    0.4447    0.2901   -0.5723 C   0  0  0  0  0  0  0  0  0  0  0  0
    0.8853    1.5414    0.1880 C   0  0  0  0  0  0  0  0  0  0  0  0
    1.1643   -0.9457   -0.0204 C   0  0  0  0  0  0  0  0  0  0  0  0
    0.8020   -2.0967   -0.7708 O   0  0  0  0  0  0  0  0  0  0  0  0
   -1.5515    0.7457    1.4386 H   0  0  0  0  0  0  0  0  0  0  0  0
   -1.4058   -1.0107    1.2165 H   0  0  0  0  0  0  0  0  0  0  0  0
   -2.8344   -0.1572    0.6286 H   0  0  0  0  0  0  0  0  0  0  0  0
   -1.3628   -0.6876   -1.2648 H   0  0  0  0  0  0  0  0  0  0  0  0
   -1.5238    1.0446   -1.0538 H   0  0  0  0  0  0  0  0  0  0  0  0
    0.7558    0.4110   -1.6192 H   0  0  0  0  0  0  0  0  0  0  0  0
    0.3749    2.4313   -0.1949 H   0  0  0  0  0  0  0  0  0  0  0  0
    1.9628    1.7011    0.0725 H   0  0  0  0  0  0  0  0  0  0  0  0
    0.6757    1.4606    1.2593 H   0  0  0  0  0  0  0  0  0  0  0  0
    0.9179   -1.1206    1.0317 H   0  0  0  0  0  0  0  0  0  0  0  0
    2.2495   -0.8187   -0.0989 H   0  0  0  0  0  0  0  0  0  0  0  0
    1.2849   -2.8497   -0.3895 H   0  0  0  0  0  0  0  0  0  0  0  0
  1  2  1  0
  2  3  1  0
  3  4  1  0
  3  5  1  0
  5  6  1  0
  1  7  1  0
  1  8  1  0
  1  9  1  0
  2 10  1  0
  2 11  1  0
  3 12  1  0
  4 13  1  0
  4 14  1  0
  4 15  1  0
  5 16  1  0
  5 17  1  0
  6 18  1  0
M  END
>  <Energy>  (10) 
4.106940687271158

>  <Real charge>  (10) 
0

>  <Mult>  (10) 
1

$$$$
mol_17 238
     RDKit          3D

 18 17  0  0  0  0  0  0  0  0999 V2000
   -2.1760   -0.0582    0.3713 C   0  0  0  0  0  0  0  0  0  0  0  0
   -0.8613   -0.7286   -0.0034 C   0  0  0  0  0  0  0  0  0  0  0  0
    0.2260    0.2640   -0.4586 C   0  0  0  0  0  0  0  0  0  0  0  0
    0.6336    1.2153    0.6704 C   0  0  0  0  0  0  0  0  0  0  0  0
    1.4479   -0.4880   -1.0095 C   0  0  0  0  0  0  0  0  0  0  0  0
    2.0274   -1.3485   -0.0387 O   0  0  0  0  0  0  0  0  0  0  0  0
   -2.0697    0.5643    1.2644 H   0  0  0  0  0  0  0  0  0  0  0  0
   -2.5459    0.5673   -0.4471 H   0  0  0  0  0  0  0  0  0  0  0  0
   -2.9352   -0.8171    0.5868 H   0  0  0  0  0  0  0  0  0  0  0  0
   -1.0607   -1.4383   -0.8159 H   0  0  0  0  0  0  0  0  0  0  0  0
   -0.5074   -1.3180    0.8510 H   0  0  0  0  0  0  0  0  0  0  0  0
   -0.1775    0.8715   -1.2791 H   0  0  0  0  0  0  0  0  0  0  0  0
   -0.1894    1.8860    0.9364 H   0  0  0  0  0  0  0  0  0  0  0  0
    1.4762    1.8440    0.3631 H   0  0  0  0  0  0  0  0  0  0  0  0
    0.9276    0.6697    1.5730 H   0  0  0  0  0  0  0  0  0  0  0  0
    2.2166    0.2109   -1.3567 H   0  0  0  0  0  0  0  0  0  0  0  0
    1.1559   -1.1047   -1.8661 H   0  0  0  0  0  0  0  0  0  0  0  0
    2.4120   -0.7917    0.6587 H   0  0  0  0  0  0  0  0  0  0  0  0
  1  2  1  0
  2  3  1  0
  3  4  1  0
  3  5  1  0
  5  6  1  0
  1  7  1  0
  1  8  1  0
  1  9  1  0
  2 10  1  0
  2 11  1  0
  3 12  1  0
  4 13  1  0
  4 14  1  0
  4 15  1  0
  5 16  1  0
  5 17  1  0
  6 18  1  0
M  END
>  <Energy>  (11) 
4.243005220359559

>  <Real charge>  (11) 
0

>  <Mult>  (11) 
1

$$$$
mol_17 89
     RDKit          3D

 18 17  0  0  0  0  0  0  0  0999 V2000
    2.1553   -0.2439   -0.0780 C   0  0  0  0  0  0  0  0  0  0  0  0
    0.8772    0.4739    0.3347 C   0  0  0  0  0  0  0  0  0  0  0  0
   -0.3814   -0.4085    0.2268 C   0  0  0  0  0  0  0  0  0  0  0  0
   -0.6921   -0.7741   -1.2277 C   0  0  0  0  0  0  0  0  0  0  0  0
   -1.5932    0.2761    0.8787 C   0  0  0  0  0  0  0  0  0  0  0  0
   -1.9617    1.4687    0.2002 O   0  0  0  0  0  0  0  0  0  0  0  0
    2.2882   -1.1692    0.4913 H   0  0  0  0  0  0  0  0  0  0  0  0
    2.1531   -0.4888   -1.1440 H   0  0  0  0  0  0  0  0  0  0  0  0
    3.0225    0.3971    0.1114 H   0  0  0  0  0  0  0  0  0  0  0  0
    0.9943    0.8066    1.3735 H   0  0  0  0  0  0  0  0  0  0  0  0
    0.7672    1.3769   -0.2773 H   0  0  0  0  0  0  0  0  0  0  0  0
   -0.1994   -1.3393    0.7797 H   0  0  0  0  0  0  0  0  0  0  0  0
   -0.7922    0.1184   -1.8543 H   0  0  0  0  0  0  0  0  0  0  0  0
    0.0960   -1.4012   -1.6556 H   0  0  0  0  0  0  0  0  0  0  0  0
   -1.6273   -1.3407   -1.2934 H   0  0  0  0  0  0  0  0  0  0  0  0
   -2.4588   -0.3947    0.8614 H   0  0  0  0  0  0  0  0  0  0  0  0
   -1.3906    0.5209    1.9270 H   0  0  0  0  0  0  0  0  0  0  0  0
   -1.2571    2.1219    0.3457 H   0  0  0  0  0  0  0  0  0  0  0  0
  1  2  1  0
  2  3  1  0
  3  4  1  0
  3  5  1  0
  5  6  1  0
  1  7  1  0
  1  8  1  0
  1  9  1  0
  2 10  1  0
  2 11  1  0
  3 12  1  0
  4 13  1  0
  4 14  1  0
  4 15  1  0
  5 16  1  0
  5 17  1  0
  6 18  1  0
M  END
>  <Energy>  (12) 
4.270551757146387

>  <Real charge>  (12) 
0

>  <Mult>  (12) 
1

$$$$
mol_17 58
     RDKit          3D

 18 17  0  0  0  0  0  0  0  0999 V2000
    2.1765   -0.6098    0.0981 C   0  0  0  0  0  0  0  0  0  0  0  0
    1.0860    0.3423   -0.3724 C   0  0  0  0  0  0  0  0  0  0  0  0
   -0.2447    0.1871    0.3872 C   0  0  0  0  0  0  0  0  0  0  0  0
   -0.8671   -1.1971    0.1754 C   0  0  0  0  0  0  0  0  0  0  0  0
   -1.2123    1.2992   -0.0460 C   0  0  0  0  0  0  0  0  0  0  0  0
   -2.3832    1.3055    0.7601 O   0  0  0  0  0  0  0  0  0  0  0  0
    1.9360   -1.6491   -0.1431 H   0  0  0  0  0  0  0  0  0  0  0  0
    2.3301   -0.5290    1.1787 H   0  0  0  0  0  0  0  0  0  0  0  0
    3.1228   -0.3687   -0.3971 H   0  0  0  0  0  0  0  0  0  0  0  0
    0.9242    0.1997   -1.4479 H   0  0  0  0  0  0  0  0  0  0  0  0
    1.4549    1.3675   -0.2428 H   0  0  0  0  0  0  0  0  0  0  0  0
   -0.0576    0.2995    1.4633 H   0  0  0  0  0  0  0  0  0  0  0  0
   -1.8076   -1.2993    0.7257 H   0  0  0  0  0  0  0  0  0  0  0  0
   -0.2057   -1.9910    0.5350 H   0  0  0  0  0  0  0  0  0  0  0  0
   -1.0728   -1.3793   -0.8848 H   0  0  0  0  0  0  0  0  0  0  0  0
   -0.7393    2.2801    0.0691 H   0  0  0  0  0  0  0  0  0  0  0  0
   -1.5081    1.1926   -1.0956 H   0  0  0  0  0  0  0  0  0  0  0  0
   -2.9319    0.5498    0.4914 H   0  0  0  0  0  0  0  0  0  0  0  0
  1  2  1  0
  2  3  1  0
  3  4  1  0
  3  5  1  0
  5  6  1  0
  1  7  1  0
  1  8  1  0
  1  9  1  0
  2 10  1  0
  2 11  1  0
  3 12  1  0
  4 13  1  0
  4 14  1  0
  4 15  1  0
  5 16  1  0
  5 17  1  0
  6 18  1  0
M  END
>  <Energy>  (13) 
4.384729668728718

>  <Real charge>  (13) 
0

>  <Mult>  (13) 
1

$$$$
mol_17 43
     RDKit          3D

 18 17  0  0  0  0  0  0  0  0999 V2000
    2.1705    0.4246    0.8248 C   0  0  0  0  0  0  0  0  0  0  0  0
    1.0963   -0.5547    0.3729 C   0  0  0  0  0  0  0  0  0  0  0  0
   -0.3241   -0.1716    0.8280 C   0  0  0  0  0  0  0  0  0  0  0  0
   -1.2918   -1.3122    0.4881 C   0  0  0  0  0  0  0  0  0  0  0  0
   -0.7908    1.1533    0.2084 C   0  0  0  0  0  0  0  0  0  0  0  0
   -2.0770    1.5212    0.6920 O   0  0  0  0  0  0  0  0  0  0  0  0
    2.1318    0.5789    1.9077 H   0  0  0  0  0  0  0  0  0  0  0  0
    2.0661    1.3946    0.3306 H   0  0  0  0  0  0  0  0  0  0  0  0
    3.1621    0.0340    0.5740 H   0  0  0  0  0  0  0  0  0  0  0  0
    1.1296   -0.6458   -0.7198 H   0  0  0  0  0  0  0  0  0  0  0  0
    1.3489   -1.5424    0.7786 H   0  0  0  0  0  0  0  0  0  0  0  0
   -0.3308   -0.0631    1.9205 H   0  0  0  0  0  0  0  0  0  0  0  0
   -0.9405   -2.2596    0.9113 H   0  0  0  0  0  0  0  0  0  0  0  0
   -1.3875   -1.4402   -0.5954 H   0  0  0  0  0  0  0  0  0  0  0  0
   -2.2886   -1.1250    0.8996 H   0  0  0  0  0  0  0  0  0  0  0  0
   -0.1128    1.9683    0.4755 H   0  0  0  0  0  0  0  0  0  0  0  0
   -0.8310    1.0957   -0.8848 H   0  0  0  0  0  0  0  0  0  0  0  0
   -2.7305    0.9440    0.2626 H   0  0  0  0  0  0  0  0  0  0  0  0
  1  2  1  0
  2  3  1  0
  3  4  1  0
  3  5  1  0
  5  6  1  0
  1  7  1  0
  1  8  1  0
  1  9  1  0
  2 10  1  0
  2 11  1  0
  3 12  1  0
  4 13  1  0
  4 14  1  0
  4 15  1  0
  5 16  1  0
  5 17  1  0
  6 18  1  0
M  END
>  <Energy>  (14) 
4.389523316758

>  <Real charge>  (14) 
0

>  <Mult>  (14) 
1

$$$$
mol_17 232
     RDKit          3D

 18 17  0  0  0  0  0  0  0  0999 V2000
    2.1293   -0.1556    0.1549 C   0  0  0  0  0  0  0  0  0  0  0  0
    0.8082    0.6004    0.2038 C   0  0  0  0  0  0  0  0  0  0  0  0
   -0.3888   -0.2029   -0.3445 C   0  0  0  0  0  0  0  0  0  0  0  0
   -0.6146   -1.5016    0.4332 C   0  0  0  0  0  0  0  0  0  0  0  0
   -1.6770    0.6342   -0.3199 C   0  0  0  0  0  0  0  0  0  0  0  0
   -1.5777    1.7577   -1.1850 O   0  0  0  0  0  0  0  0  0  0  0  0
    2.1336   -1.0037    0.8456 H   0  0  0  0  0  0  0  0  0  0  0  0
    2.3337   -0.5258   -0.8545 H   0  0  0  0  0  0  0  0  0  0  0  0
    2.9508    0.5076    0.4452 H   0  0  0  0  0  0  0  0  0  0  0  0
    0.9315    1.5191   -0.3811 H   0  0  0  0  0  0  0  0  0  0  0  0
    0.6106    0.9082    1.2378 H   0  0  0  0  0  0  0  0  0  0  0  0
   -0.1694   -0.4565   -1.3900 H   0  0  0  0  0  0  0  0  0  0  0  0
   -1.5008   -2.0282    0.0624 H   0  0  0  0  0  0  0  0  0  0  0  0
    0.2328   -2.1851    0.3241 H   0  0  0  0  0  0  0  0  0  0  0  0
   -0.7608   -1.3040    1.5004 H   0  0  0  0  0  0  0  0  0  0  0  0
   -2.5251    0.0357   -0.6688 H   0  0  0  0  0  0  0  0  0  0  0  0
   -1.9116    0.9870    0.6905 H   0  0  0  0  0  0  0  0  0  0  0  0
   -1.0045    2.4135   -0.7540 H   0  0  0  0  0  0  0  0  0  0  0  0
  1  2  1  0
  2  3  1  0
  3  4  1  0
  3  5  1  0
  5  6  1  0
  1  7  1  0
  1  8  1  0
  1  9  1  0
  2 10  1  0
  2 11  1  0
  3 12  1  0
  4 13  1  0
  4 14  1  0
  4 15  1  0
  5 16  1  0
  5 17  1  0
  6 18  1  0
M  END
>  <Energy>  (15) 
4.429790436316088

>  <Real charge>  (15) 
0

>  <Mult>  (15) 
1

$$$$
mol_17 214
     RDKit          3D

 18 17  0  0  0  0  0  0  0  0999 V2000
    1.7107   -0.6869    0.0521 C   0  0  0  0  0  0  0  0  0  0  0  0
    0.6455   -0.2785   -0.9560 C   0  0  0  0  0  0  0  0  0  0  0  0
   -0.5995    0.4063   -0.3563 C   0  0  0  0  0  0  0  0  0  0  0  0
   -0.2583    1.7657    0.2566 C   0  0  0  0  0  0  0  0  0  0  0  0
   -1.3521   -0.4565    0.6646 C   0  0  0  0  0  0  0  0  0  0  0  0
   -1.7701   -1.6865    0.0889 O   0  0  0  0  0  0  0  0  0  0  0  0
    2.0915    0.1748    0.6075 H   0  0  0  0  0  0  0  0  0  0  0  0
    1.3283   -1.4211    0.7668 H   0  0  0  0  0  0  0  0  0  0  0  0
    2.5581   -1.1450   -0.4687 H   0  0  0  0  0  0  0  0  0  0  0  0
    0.3368   -1.1676   -1.5189 H   0  0  0  0  0  0  0  0  0  0  0  0
    1.1027    0.3973   -1.6898 H   0  0  0  0  0  0  0  0  0  0  0  0
   -1.2804    0.5847   -1.2000 H   0  0  0  0  0  0  0  0  0  0  0  0
   -1.1718    2.2975    0.5443 H   0  0  0  0  0  0  0  0  0  0  0  0
    0.2792    2.3944   -0.4609 H   0  0  0  0  0  0  0  0  0  0  0  0
    0.3611    1.6627    1.1532 H   0  0  0  0  0  0  0  0  0  0  0  0
   -2.2540    0.0653    1.0023 H   0  0  0  0  0  0  0  0  0  0  0  0
   -0.7484   -0.6695    1.5528 H   0  0  0  0  0  0  0  0  0  0  0  0
   -0.9793   -2.2370   -0.0385 H   0  0  0  0  0  0  0  0  0  0  0  0
  1  2  1  0
  2  3  1  0
  3  4  1  0
  3  5  1  0
  5  6  1  0
  1  7  1  0
  1  8  1  0
  1  9  1  0
  2 10  1  0
  2 11  1  0
  3 12  1  0
  4 13  1  0
  4 14  1  0
  4 15  1  0
  5 16  1  0
  5 17  1  0
  6 18  1  0
M  END
>  <Energy>  (16) 
4.549402610263677

>  <Real charge>  (16) 
0

>  <Mult>  (16) 
1

$$$$
mol_17 292
     RDKit          3D

 18 17  0  0  0  0  0  0  0  0999 V2000
   -1.7688   -0.3789   -0.8393 C   0  0  0  0  0  0  0  0  0  0  0  0
   -1.1982   -0.2882    0.5694 C   0  0  0  0  0  0  0  0  0  0  0  0
    0.2931    0.0879    0.6519 C   0  0  0  0  0  0  0  0  0  0  0  0
    0.5567    1.4893    0.0919 C   0  0  0  0  0  0  0  0  0  0  0  0
    1.1863   -0.9643   -0.0179 C   0  0  0  0  0  0  0  0  0  0  0  0
    2.5560   -0.7382    0.2927 O   0  0  0  0  0  0  0  0  0  0  0  0
   -1.2590   -1.1440   -1.4316 H   0  0  0  0  0  0  0  0  0  0  0  0
   -1.6943    0.5768   -1.3660 H   0  0  0  0  0  0  0  0  0  0  0  0
   -2.8291   -0.6489   -0.7937 H   0  0  0  0  0  0  0  0  0  0  0  0
   -1.3504   -1.2526    1.0700 H   0  0  0  0  0  0  0  0  0  0  0  0
   -1.7835    0.4467    1.1361 H   0  0  0  0  0  0  0  0  0  0  0  0
    0.5610    0.1235    1.7167 H   0  0  0  0  0  0  0  0  0  0  0  0
   -0.1369    2.2181    0.5244 H   0  0  0  0  0  0  0  0  0  0  0  0
    0.4470    1.5170   -0.9969 H   0  0  0  0  0  0  0  0  0  0  0  0
    1.5713    1.8229    0.3329 H   0  0  0  0  0  0  0  0  0  0  0  0
    0.9334   -1.9653    0.3463 H   0  0  0  0  0  0  0  0  0  0  0  0
    1.0774   -0.9644   -1.1073 H   0  0  0  0  0  0  0  0  0  0  0  0
    2.8382    0.0628   -0.1797 H   0  0  0  0  0  0  0  0  0  0  0  0
  1  2  1  0
  2  3  1  0
  3  4  1  0
  3  5  1  0
  5  6  1  0
  1  7  1  0
  1  8  1  0
  1  9  1  0
  2 10  1  0
  2 11  1  0
  3 12  1  0
  4 13  1  0
  4 14  1  0
  4 15  1  0
  5 16  1  0
  5 17  1  0
  6 18  1  0
M  END
>  <Energy>  (17) 
4.5921197064669625

>  <Real charge>  (17) 
0

>  <Mult>  (17) 
1

$$$$
