mol_790 4
     RDKit          3D

 19 19  0  0  0  0  0  0  0  0999 V2000
   -3.4619   -0.0331    0.1423 C   0  0  0  0  0  0  0  0  0  0  0  0
   -2.0728   -0.6099    0.2611 C   0  0  0  0  0  0  0  0  0  0  0  0
   -1.9088   -1.7904    0.5467 O   0  0  0  0  0  0  0  0  0  0  0  0
   -1.0929    0.3415    0.0427 N   0  0  0  0  0  0  0  0  0  0  0  0
    0.3052    0.1590    0.0769 C   0  0  0  0  0  0  0  0  0  0  0  0
    1.1032    1.2849   -0.1686 C   0  0  0  0  0  0  0  0  0  0  0  0
    2.4974    1.1894   -0.1540 C   0  0  0  0  0  0  0  0  0  0  0  0
    3.1079   -0.0341    0.1060 C   0  0  0  0  0  0  0  0  0  0  0  0
    2.3237   -1.1587    0.3504 C   0  0  0  0  0  0  0  0  0  0  0  0
    0.9281   -1.0629    0.3358 C   0  0  0  0  0  0  0  0  0  0  0  0
   -4.1700   -0.8351   -0.0856 H   0  0  0  0  0  0  0  0  0  0  0  0
   -3.5123    0.7025   -0.6657 H   0  0  0  0  0  0  0  0  0  0  0  0
   -3.7401    0.4390    1.0882 H   0  0  0  0  0  0  0  0  0  0  0  0
   -1.4087    1.2815   -0.1580 H   0  0  0  0  0  0  0  0  0  0  0  0
    0.6536    2.2525   -0.3743 H   0  0  0  0  0  0  0  0  0  0  0  0
    3.1053    2.0697   -0.3455 H   0  0  0  0  0  0  0  0  0  0  0  0
    4.1917   -0.1131    0.1184 H   0  0  0  0  0  0  0  0  0  0  0  0
    2.7942   -2.1174    0.5540 H   0  0  0  0  0  0  0  0  0  0  0  0
    0.3571   -1.9652    0.5309 H   0  0  0  0  0  0  0  0  0  0  0  0
  1  2  1  0
  2  3  2  0
  2  4  1  0
  4  5  1  0
  5  6  2  0
  6  7  1  0
  7  8  2  0
  8  9  1  0
  9 10  2  0
 10  5  1  0
  1 11  1  0
  1 12  1  0
  1 13  1  0
  4 14  1  0
  6 15  1  0
  7 16  1  0
  8 17  1  0
  9 18  1  0
 10 19  1  0
M  END
>  <Energy>  (1) 
-0.4669541653197138

>  <Real charge>  (1) 
0

>  <Mult>  (1) 
1

$$$$
