mol_969 161
     RDKit          3D

 66 66  0  0  0  0  0  0  0  0999 V2000
    7.8071   -2.1556    3.9281 C   0  0  0  0  0  0  0  0  0  0  0  0
    7.2621   -1.4619    2.6899 C   0  0  0  0  0  0  0  0  0  0  0  0
    5.9064   -0.8112    2.9636 C   0  0  0  0  0  0  0  0  0  0  0  0
    5.3617   -0.1146    1.7156 C   0  0  0  0  0  0  0  0  0  0  0  0
    4.0049    0.5363    1.9892 C   0  0  0  0  0  0  0  0  0  0  0  0
    3.4600    1.2324    0.7406 C   0  0  0  0  0  0  0  0  0  0  0  0
    2.1007    1.8814    1.0161 C   0  0  0  0  0  0  0  0  0  0  0  0
    1.5479    2.6087   -0.2064 C   0  0  0  0  0  0  0  0  0  0  0  0
    1.3387    1.6585   -1.2578 O   0  0  0  0  0  0  0  0  0  0  0  0
    0.6891    2.1534   -2.3376 C   0  0  0  0  0  0  0  0  0  0  0  0
    0.3351    3.3072   -2.5119 O   0  0  0  0  0  0  0  0  0  0  0  0
    0.5618    1.0943   -3.3591 C   0  0  0  0  0  0  0  0  0  0  0  0
    0.8761    1.4476   -4.6807 C   0  0  0  0  0  0  0  0  0  0  0  0
    0.8438    0.4868   -5.6930 C   0  0  0  0  0  0  0  0  0  0  0  0
    0.4989   -0.8303   -5.3939 C   0  0  0  0  0  0  0  0  0  0  0  0
    0.1657   -1.1851   -4.0854 C   0  0  0  0  0  0  0  0  0  0  0  0
    0.1764   -0.2206   -3.0658 C   0  0  0  0  0  0  0  0  0  0  0  0
   -0.2580   -0.6630   -1.7253 C   0  0  0  0  0  0  0  0  0  0  0  0
    0.0530   -1.7342   -1.2327 O   0  0  0  0  0  0  0  0  0  0  0  0
   -1.1147    0.2492   -1.2086 O   0  0  0  0  0  0  0  0  0  0  0  0
   -1.6356   -0.0933    0.0805 C   0  0  0  0  0  0  0  0  0  0  0  0
   -2.4421    1.0844    0.6211 C   0  0  0  0  0  0  0  0  0  0  0  0
   -3.5675    1.5653   -0.3024 C   0  0  0  0  0  0  0  0  0  0  0  0
   -4.6059    0.5080   -0.6885 C   0  0  0  0  0  0  0  0  0  0  0  0
   -5.3444   -0.0855    0.5128 C   0  0  0  0  0  0  0  0  0  0  0  0
   -6.4399   -1.0556    0.0651 C   0  0  0  0  0  0  0  0  0  0  0  0
   -7.1767   -1.6534    1.2635 C   0  0  0  0  0  0  0  0  0  0  0  0
   -8.2663   -2.6179    0.8229 C   0  0  0  0  0  0  0  0  0  0  0  0
    8.7769   -2.6138    3.7100 H   0  0  0  0  0  0  0  0  0  0  0  0
    7.9446   -1.4437    4.7483 H   0  0  0  0  0  0  0  0  0  0  0  0
    7.1275   -2.9440    4.2673 H   0  0  0  0  0  0  0  0  0  0  0  0
    7.9797   -0.7024    2.3582 H   0  0  0  0  0  0  0  0  0  0  0  0
    7.1671   -2.1944    1.8799 H   0  0  0  0  0  0  0  0  0  0  0  0
    5.1937   -1.5744    3.2990 H   0  0  0  0  0  0  0  0  0  0  0  0
    6.0062   -0.0825    3.7772 H   0  0  0  0  0  0  0  0  0  0  0  0
    5.2621   -0.8435    0.9021 H   0  0  0  0  0  0  0  0  0  0  0  0
    6.0744    0.6488    1.3803 H   0  0  0  0  0  0  0  0  0  0  0  0
    4.1044    1.2653    2.8025 H   0  0  0  0  0  0  0  0  0  0  0  0
    3.2922   -0.2272    2.3244 H   0  0  0  0  0  0  0  0  0  0  0  0
    3.3675    0.5012   -0.0713 H   0  0  0  0  0  0  0  0  0  0  0  0
    4.1706    1.9983    0.4071 H   0  0  0  0  0  0  0  0  0  0  0  0
    2.1905    2.5924    1.8455 H   0  0  0  0  0  0  0  0  0  0  0  0
    1.3924    1.1017    1.3216 H   0  0  0  0  0  0  0  0  0  0  0  0
    0.5959    3.0832    0.0592 H   0  0  0  0  0  0  0  0  0  0  0  0
    2.2530    3.3763   -0.5453 H   0  0  0  0  0  0  0  0  0  0  0  0
    1.1598    2.4712   -4.9205 H   0  0  0  0  0  0  0  0  0  0  0  0
    1.0957    0.7650   -6.7141 H   0  0  0  0  0  0  0  0  0  0  0  0
    0.4815   -1.5807   -6.1813 H   0  0  0  0  0  0  0  0  0  0  0  0
   -0.1161   -2.2132   -3.8629 H   0  0  0  0  0  0  0  0  0  0  0  0
   -0.8091   -0.3050    0.7694 H   0  0  0  0  0  0  0  0  0  0  0  0
   -2.2618   -0.9881   -0.0039 H   0  0  0  0  0  0  0  0  0  0  0  0
   -1.7607    1.9315    0.7714 H   0  0  0  0  0  0  0  0  0  0  0  0
   -2.8444    0.8279    1.6073 H   0  0  0  0  0  0  0  0  0  0  0  0
   -4.0790    2.4045    0.1855 H   0  0  0  0  0  0  0  0  0  0  0  0
   -3.1292    1.9718   -1.2224 H   0  0  0  0  0  0  0  0  0  0  0  0
   -4.1302   -0.2927   -1.2664 H   0  0  0  0  0  0  0  0  0  0  0  0
   -5.3350    0.9791   -1.3598 H   0  0  0  0  0  0  0  0  0  0  0  0
   -5.7892    0.7222    1.1065 H   0  0  0  0  0  0  0  0  0  0  0  0
   -4.6397   -0.6169    1.1622 H   0  0  0  0  0  0  0  0  0  0  0  0
   -5.9954   -1.8610   -0.5322 H   0  0  0  0  0  0  0  0  0  0  0  0
   -7.1546   -0.5309   -0.5807 H   0  0  0  0  0  0  0  0  0  0  0  0
   -7.6260   -0.8524    1.8619 H   0  0  0  0  0  0  0  0  0  0  0  0
   -6.4678   -2.1832    1.9103 H   0  0  0  0  0  0  0  0  0  0  0  0
   -8.7801   -3.0335    1.6953 H   0  0  0  0  0  0  0  0  0  0  0  0
   -9.0103   -2.1113    0.1999 H   0  0  0  0  0  0  0  0  0  0  0  0
   -7.8454   -3.4493    0.2485 H   0  0  0  0  0  0  0  0  0  0  0  0
  1  2  1  0
  2  3  1  0
  3  4  1  0
  4  5  1  0
  5  6  1  0
  6  7  1  0
  7  8  1  0
  8  9  1  0
  9 10  1  0
 10 11  2  0
 10 12  1  0
 12 13  2  0
 13 14  1  0
 14 15  2  0
 15 16  1  0
 16 17  2  0
 17 18  1  0
 18 19  2  0
 18 20  1  0
 20 21  1  0
 21 22  1  0
 22 23  1  0
 23 24  1  0
 24 25  1  0
 25 26  1  0
 26 27  1  0
 27 28  1  0
 17 12  1  0
  1 29  1  0
  1 30  1  0
  1 31  1  0
  2 32  1  0
  2 33  1  0
  3 34  1  0
  3 35  1  0
  4 36  1  0
  4 37  1  0
  5 38  1  0
  5 39  1  0
  6 40  1  0
  6 41  1  0
  7 42  1  0
  7 43  1  0
  8 44  1  0
  8 45  1  0
 13 46  1  0
 14 47  1  0
 15 48  1  0
 16 49  1  0
 21 50  1  0
 21 51  1  0
 22 52  1  0
 22 53  1  0
 23 54  1  0
 23 55  1  0
 24 56  1  0
 24 57  1  0
 25 58  1  0
 25 59  1  0
 26 60  1  0
 26 61  1  0
 27 62  1  0
 27 63  1  0
 28 64  1  0
 28 65  1  0
 28 66  1  0
M  END
>  <Energy>  (1) 
15.291842388391037

>  <Real charge>  (1) 
0

>  <Mult>  (1) 
1

$$$$
mol_969 1050
     RDKit          3D

 66 66  0  0  0  0  0  0  0  0999 V2000
   -2.8748    2.1967   -4.5879 C   0  0  0  0  0  0  0  0  0  0  0  0
   -3.7966    2.1168   -3.3814 C   0  0  0  0  0  0  0  0  0  0  0  0
   -3.7525    0.7319   -2.7346 C   0  0  0  0  0  0  0  0  0  0  0  0
   -4.6710    0.6615   -1.5124 C   0  0  0  0  0  0  0  0  0  0  0  0
   -4.7362   -0.7314   -0.8782 C   0  0  0  0  0  0  0  0  0  0  0  0
   -3.4037   -1.1813   -0.2769 C   0  0  0  0  0  0  0  0  0  0  0  0
   -3.5394   -2.5187    0.4557 C   0  0  0  0  0  0  0  0  0  0  0  0
   -2.1998   -3.0120    0.9966 C   0  0  0  0  0  0  0  0  0  0  0  0
   -1.7100   -2.0773    1.9661 O   0  0  0  0  0  0  0  0  0  0  0  0
   -0.5016   -2.4040    2.4842 C   0  0  0  0  0  0  0  0  0  0  0  0
    0.1575   -3.3998    2.2386 O   0  0  0  0  0  0  0  0  0  0  0  0
   -0.1386   -1.4163    3.5169 C   0  0  0  0  0  0  0  0  0  0  0  0
    0.2404   -1.9223    4.7700 C   0  0  0  0  0  0  0  0  0  0  0  0
    0.5330   -1.0512    5.8205 C   0  0  0  0  0  0  0  0  0  0  0  0
    0.4492    0.3265    5.6269 C   0  0  0  0  0  0  0  0  0  0  0  0
    0.0926    0.8362    4.3767 C   0  0  0  0  0  0  0  0  0  0  0  0
   -0.1850   -0.0322    3.3089 C   0  0  0  0  0  0  0  0  0  0  0  0
   -0.4764    0.5924    2.0014 C   0  0  0  0  0  0  0  0  0  0  0  0
   -1.1181    1.6218    1.8739 O   0  0  0  0  0  0  0  0  0  0  0  0
    0.1723   -0.0815    1.0233 O   0  0  0  0  0  0  0  0  0  0  0  0
    0.0638    0.5056   -0.2787 C   0  0  0  0  0  0  0  0  0  0  0  0
    0.6034   -0.4748   -1.3170 C   0  0  0  0  0  0  0  0  0  0  0  0
    2.0300   -0.9685   -1.0518 C   0  0  0  0  0  0  0  0  0  0  0  0
    3.0708    0.1538   -1.0483 C   0  0  0  0  0  0  0  0  0  0  0  0
    4.4861   -0.4074   -0.8874 C   0  0  0  0  0  0  0  0  0  0  0  0
    5.5785    0.6623   -0.9755 C   0  0  0  0  0  0  0  0  0  0  0  0
    5.5434    1.6638    0.1796 C   0  0  0  0  0  0  0  0  0  0  0  0
    6.7155    2.6311    0.1102 C   0  0  0  0  0  0  0  0  0  0  0  0
   -2.9217    3.1944   -5.0353 H   0  0  0  0  0  0  0  0  0  0  0  0
   -1.8363    2.0011   -4.3017 H   0  0  0  0  0  0  0  0  0  0  0  0
   -3.1642    1.4677   -5.3516 H   0  0  0  0  0  0  0  0  0  0  0  0
   -3.4992    2.8783   -2.6510 H   0  0  0  0  0  0  0  0  0  0  0  0
   -4.8208    2.3496   -3.6950 H   0  0  0  0  0  0  0  0  0  0  0  0
   -4.0561   -0.0258   -3.4670 H   0  0  0  0  0  0  0  0  0  0  0  0
   -2.7202    0.5079   -2.4445 H   0  0  0  0  0  0  0  0  0  0  0  0
   -4.3437    1.3910   -0.7613 H   0  0  0  0  0  0  0  0  0  0  0  0
   -5.6867    0.9495   -1.8105 H   0  0  0  0  0  0  0  0  0  0  0  0
   -5.4982   -0.7132   -0.0892 H   0  0  0  0  0  0  0  0  0  0  0  0
   -5.0715   -1.4610   -1.6252 H   0  0  0  0  0  0  0  0  0  0  0  0
   -3.0439   -0.4142    0.4181 H   0  0  0  0  0  0  0  0  0  0  0  0
   -2.6540   -1.2857   -1.0684 H   0  0  0  0  0  0  0  0  0  0  0  0
   -4.2438   -2.3975    1.2875 H   0  0  0  0  0  0  0  0  0  0  0  0
   -3.9514   -3.2738   -0.2236 H   0  0  0  0  0  0  0  0  0  0  0  0
   -2.3416   -3.9873    1.4766 H   0  0  0  0  0  0  0  0  0  0  0  0
   -1.4765   -3.1134    0.1788 H   0  0  0  0  0  0  0  0  0  0  0  0
    0.2950   -2.9978    4.9316 H   0  0  0  0  0  0  0  0  0  0  0  0
    0.8192   -1.4482    6.7920 H   0  0  0  0  0  0  0  0  0  0  0  0
    0.6701    1.0060    6.4473 H   0  0  0  0  0  0  0  0  0  0  0  0
    0.0454    1.9145    4.2312 H   0  0  0  0  0  0  0  0  0  0  0  0
   -0.9847    0.7267   -0.5085 H   0  0  0  0  0  0  0  0  0  0  0  0
    0.6289    1.4436   -0.2990 H   0  0  0  0  0  0  0  0  0  0  0  0
   -0.0493   -1.3563   -1.3345 H   0  0  0  0  0  0  0  0  0  0  0  0
    0.5479   -0.0150   -2.3106 H   0  0  0  0  0  0  0  0  0  0  0  0
    2.0665   -1.5086   -0.0979 H   0  0  0  0  0  0  0  0  0  0  0  0
    2.2873   -1.6969   -1.8310 H   0  0  0  0  0  0  0  0  0  0  0  0
    2.8571    0.8466   -0.2284 H   0  0  0  0  0  0  0  0  0  0  0  0
    3.0035    0.7205   -1.9845 H   0  0  0  0  0  0  0  0  0  0  0  0
    4.5676   -0.9385    0.0688 H   0  0  0  0  0  0  0  0  0  0  0  0
    4.6696   -1.1475   -1.6762 H   0  0  0  0  0  0  0  0  0  0  0  0
    6.5519    0.1560   -0.9801 H   0  0  0  0  0  0  0  0  0  0  0  0
    5.4959    1.1948   -1.9308 H   0  0  0  0  0  0  0  0  0  0  0  0
    5.5740    1.1307    1.1368 H   0  0  0  0  0  0  0  0  0  0  0  0
    4.6129    2.2407    0.1563 H   0  0  0  0  0  0  0  0  0  0  0  0
    6.6705    3.3411    0.9419 H   0  0  0  0  0  0  0  0  0  0  0  0
    7.6693    2.0974    0.1709 H   0  0  0  0  0  0  0  0  0  0  0  0
    6.6987    3.2008   -0.8245 H   0  0  0  0  0  0  0  0  0  0  0  0
  1  2  1  0
  2  3  1  0
  3  4  1  0
  4  5  1  0
  5  6  1  0
  6  7  1  0
  7  8  1  0
  8  9  1  0
  9 10  1  0
 10 11  2  0
 10 12  1  0
 12 13  2  0
 13 14  1  0
 14 15  2  0
 15 16  1  0
 16 17  2  0
 17 18  1  0
 18 19  2  0
 18 20  1  0
 20 21  1  0
 21 22  1  0
 22 23  1  0
 23 24  1  0
 24 25  1  0
 25 26  1  0
 26 27  1  0
 27 28  1  0
 17 12  1  0
  1 29  1  0
  1 30  1  0
  1 31  1  0
  2 32  1  0
  2 33  1  0
  3 34  1  0
  3 35  1  0
  4 36  1  0
  4 37  1  0
  5 38  1  0
  5 39  1  0
  6 40  1  0
  6 41  1  0
  7 42  1  0
  7 43  1  0
  8 44  1  0
  8 45  1  0
 13 46  1  0
 14 47  1  0
 15 48  1  0
 16 49  1  0
 21 50  1  0
 21 51  1  0
 22 52  1  0
 22 53  1  0
 23 54  1  0
 23 55  1  0
 24 56  1  0
 24 57  1  0
 25 58  1  0
 25 59  1  0
 26 60  1  0
 26 61  1  0
 27 62  1  0
 27 63  1  0
 28 64  1  0
 28 65  1  0
 28 66  1  0
M  END
>  <Energy>  (2) 
15.491039071065003

>  <Real charge>  (2) 
0

>  <Mult>  (2) 
1

$$$$
mol_969 554
     RDKit          3D

 66 66  0  0  0  0  0  0  0  0999 V2000
    1.8789    4.9889   -1.5324 C   0  0  0  0  0  0  0  0  0  0  0  0
    1.1141    3.6807   -1.4082 C   0  0  0  0  0  0  0  0  0  0  0  0
    2.0144    2.4429   -1.3949 C   0  0  0  0  0  0  0  0  0  0  0  0
    2.9176    2.3628   -0.1616 C   0  0  0  0  0  0  0  0  0  0  0  0
    3.7737    1.0910   -0.1115 C   0  0  0  0  0  0  0  0  0  0  0  0
    3.0048   -0.2342   -0.0959 C   0  0  0  0  0  0  0  0  0  0  0  0
    2.0509   -0.3698    1.0885 C   0  0  0  0  0  0  0  0  0  0  0  0
    1.2895   -1.6905    1.0532 C   0  0  0  0  0  0  0  0  0  0  0  0
    0.4364   -1.7340    2.2056 O   0  0  0  0  0  0  0  0  0  0  0  0
   -0.5566   -2.6515    2.1429 C   0  0  0  0  0  0  0  0  0  0  0  0
   -0.7643   -3.4406    1.2363 O   0  0  0  0  0  0  0  0  0  0  0  0
   -1.3063   -2.6563    3.4164 C   0  0  0  0  0  0  0  0  0  0  0  0
   -1.6344   -3.9111    3.9539 C   0  0  0  0  0  0  0  0  0  0  0  0
   -2.2803   -4.0030    5.1885 C   0  0  0  0  0  0  0  0  0  0  0  0
   -2.6021   -2.8456    5.8954 C   0  0  0  0  0  0  0  0  0  0  0  0
   -2.2972   -1.5933    5.3598 C   0  0  0  0  0  0  0  0  0  0  0  0
   -1.6666   -1.4942    4.1099 C   0  0  0  0  0  0  0  0  0  0  0  0
   -1.4464   -0.1351    3.5826 C   0  0  0  0  0  0  0  0  0  0  0  0
   -0.9781    0.7785    4.2401 O   0  0  0  0  0  0  0  0  0  0  0  0
   -1.9481   -0.0623    2.3263 O   0  0  0  0  0  0  0  0  0  0  0  0
   -1.8520    1.2396    1.7356 C   0  0  0  0  0  0  0  0  0  0  0  0
   -2.4584    1.2046    0.3355 C   0  0  0  0  0  0  0  0  0  0  0  0
   -1.7291    0.2260   -0.5893 C   0  0  0  0  0  0  0  0  0  0  0  0
   -2.2923    0.2817   -2.0108 C   0  0  0  0  0  0  0  0  0  0  0  0
   -1.7024   -0.7811   -2.9441 C   0  0  0  0  0  0  0  0  0  0  0  0
   -0.2065   -0.5939   -3.2083 C   0  0  0  0  0  0  0  0  0  0  0  0
    0.3781   -1.6428   -4.1574 C   0  0  0  0  0  0  0  0  0  0  0  0
   -0.1462   -1.5355   -5.5808 C   0  0  0  0  0  0  0  0  0  0  0  0
    2.4920    5.1813   -0.6472 H   0  0  0  0  0  0  0  0  0  0  0  0
    1.1789    5.8241   -1.6373 H   0  0  0  0  0  0  0  0  0  0  0  0
    2.5310    4.9813   -2.4114 H   0  0  0  0  0  0  0  0  0  0  0  0
    0.4253    3.5983   -2.2576 H   0  0  0  0  0  0  0  0  0  0  0  0
    0.4967    3.7021   -0.5024 H   0  0  0  0  0  0  0  0  0  0  0  0
    2.6268    2.4208   -2.3043 H   0  0  0  0  0  0  0  0  0  0  0  0
    1.3618    1.5654   -1.4313 H   0  0  0  0  0  0  0  0  0  0  0  0
    2.3139    2.4449    0.7492 H   0  0  0  0  0  0  0  0  0  0  0  0
    3.6009    3.2200   -0.1543 H   0  0  0  0  0  0  0  0  0  0  0  0
    4.4111    1.1397    0.7803 H   0  0  0  0  0  0  0  0  0  0  0  0
    4.4516    1.0871   -0.9742 H   0  0  0  0  0  0  0  0  0  0  0  0
    2.4571   -0.3586   -1.0361 H   0  0  0  0  0  0  0  0  0  0  0  0
    3.7348   -1.0528   -0.0601 H   0  0  0  0  0  0  0  0  0  0  0  0
    2.6043   -0.2896    2.0323 H   0  0  0  0  0  0  0  0  0  0  0  0
    1.3222    0.4474    1.0973 H   0  0  0  0  0  0  0  0  0  0  0  0
    0.6989   -1.7544    0.1320 H   0  0  0  0  0  0  0  0  0  0  0  0
    1.9847   -2.5359    1.0999 H   0  0  0  0  0  0  0  0  0  0  0  0
   -1.3734   -4.8215    3.4162 H   0  0  0  0  0  0  0  0  0  0  0  0
   -2.5245   -4.9791    5.6021 H   0  0  0  0  0  0  0  0  0  0  0  0
   -3.0977   -2.9176    6.8612 H   0  0  0  0  0  0  0  0  0  0  0  0
   -2.5632   -0.6928    5.9111 H   0  0  0  0  0  0  0  0  0  0  0  0
   -2.4066    1.9589    2.3495 H   0  0  0  0  0  0  0  0  0  0  0  0
   -0.8010    1.5463    1.6839 H   0  0  0  0  0  0  0  0  0  0  0  0
   -3.5110    0.9046    0.4061 H   0  0  0  0  0  0  0  0  0  0  0  0
   -2.4280    2.2137   -0.0915 H   0  0  0  0  0  0  0  0  0  0  0  0
   -0.6634    0.4749   -0.5998 H   0  0  0  0  0  0  0  0  0  0  0  0
   -1.8233   -0.7941   -0.1996 H   0  0  0  0  0  0  0  0  0  0  0  0
   -2.1236    1.2785   -2.4363 H   0  0  0  0  0  0  0  0  0  0  0  0
   -3.3789    0.1347   -1.9716 H   0  0  0  0  0  0  0  0  0  0  0  0
   -2.2523   -0.7326   -3.8906 H   0  0  0  0  0  0  0  0  0  0  0  0
   -1.8815   -1.7781   -2.5237 H   0  0  0  0  0  0  0  0  0  0  0  0
    0.3405   -0.6658   -2.2627 H   0  0  0  0  0  0  0  0  0  0  0  0
   -0.0213    0.4101   -3.6086 H   0  0  0  0  0  0  0  0  0  0  0  0
    0.1815   -2.6490   -3.7696 H   0  0  0  0  0  0  0  0  0  0  0  0
    1.4677   -1.5194   -4.1796 H   0  0  0  0  0  0  0  0  0  0  0  0
   -1.2124   -1.7730   -5.6359 H   0  0  0  0  0  0  0  0  0  0  0  0
    0.3830   -2.2410   -6.2295 H   0  0  0  0  0  0  0  0  0  0  0  0
    0.0061   -0.5282   -5.9812 H   0  0  0  0  0  0  0  0  0  0  0  0
  1  2  1  0
  2  3  1  0
  3  4  1  0
  4  5  1  0
  5  6  1  0
  6  7  1  0
  7  8  1  0
  8  9  1  0
  9 10  1  0
 10 11  2  0
 10 12  1  0
 12 13  2  0
 13 14  1  0
 14 15  2  0
 15 16  1  0
 16 17  2  0
 17 18  1  0
 18 19  2  0
 18 20  1  0
 20 21  1  0
 21 22  1  0
 22 23  1  0
 23 24  1  0
 24 25  1  0
 25 26  1  0
 26 27  1  0
 27 28  1  0
 17 12  1  0
  1 29  1  0
  1 30  1  0
  1 31  1  0
  2 32  1  0
  2 33  1  0
  3 34  1  0
  3 35  1  0
  4 36  1  0
  4 37  1  0
  5 38  1  0
  5 39  1  0
  6 40  1  0
  6 41  1  0
  7 42  1  0
  7 43  1  0
  8 44  1  0
  8 45  1  0
 13 46  1  0
 14 47  1  0
 15 48  1  0
 16 49  1  0
 21 50  1  0
 21 51  1  0
 22 52  1  0
 22 53  1  0
 23 54  1  0
 23 55  1  0
 24 56  1  0
 24 57  1  0
 25 58  1  0
 25 59  1  0
 26 60  1  0
 26 61  1  0
 27 62  1  0
 27 63  1  0
 28 64  1  0
 28 65  1  0
 28 66  1  0
M  END
>  <Energy>  (3) 
15.887981325965178

>  <Real charge>  (3) 
0

>  <Mult>  (3) 
1

$$$$
mol_969 859
     RDKit          3D

 66 66  0  0  0  0  0  0  0  0999 V2000
    2.3874    5.6797    0.6591 C   0  0  0  0  0  0  0  0  0  0  0  0
    2.7806    4.2259    0.8725 C   0  0  0  0  0  0  0  0  0  0  0  0
    2.4731    3.3784   -0.3629 C   0  0  0  0  0  0  0  0  0  0  0  0
    2.9246    1.9218   -0.2242 C   0  0  0  0  0  0  0  0  0  0  0  0
    2.1047    1.1323    0.7980 C   0  0  0  0  0  0  0  0  0  0  0  0
    2.5464   -0.3317    0.8546 C   0  0  0  0  0  0  0  0  0  0  0  0
    1.7208   -1.1198    1.8758 C   0  0  0  0  0  0  0  0  0  0  0  0
    2.1438   -2.5866    1.9559 C   0  0  0  0  0  0  0  0  0  0  0  0
    2.0391   -3.2324    0.6788 O   0  0  0  0  0  0  0  0  0  0  0  0
    0.7925   -3.6331    0.3370 C   0  0  0  0  0  0  0  0  0  0  0  0
   -0.2204   -3.5930    1.0127 O   0  0  0  0  0  0  0  0  0  0  0  0
    0.8284   -4.1363   -1.0441 C   0  0  0  0  0  0  0  0  0  0  0  0
    1.6331   -5.2414   -1.3513 C   0  0  0  0  0  0  0  0  0  0  0  0
    1.6116   -5.7774   -2.6402 C   0  0  0  0  0  0  0  0  0  0  0  0
    0.7871   -5.2179   -3.6183 C   0  0  0  0  0  0  0  0  0  0  0  0
   -0.0130   -4.1138   -3.3149 C   0  0  0  0  0  0  0  0  0  0  0  0
    0.0077   -3.5695   -2.0233 C   0  0  0  0  0  0  0  0  0  0  0  0
   -0.7696   -2.3530   -1.7260 C   0  0  0  0  0  0  0  0  0  0  0  0
   -0.3034   -1.3751   -1.1678 O   0  0  0  0  0  0  0  0  0  0  0  0
   -2.0415   -2.5235   -2.1617 O   0  0  0  0  0  0  0  0  0  0  0  0
   -2.9401   -1.4497   -1.8389 C   0  0  0  0  0  0  0  0  0  0  0  0
   -3.5477   -1.6919   -0.4597 C   0  0  0  0  0  0  0  0  0  0  0  0
   -4.5348   -0.6077   -0.0272 C   0  0  0  0  0  0  0  0  0  0  0  0
   -3.9344    0.7889    0.1650 C   0  0  0  0  0  0  0  0  0  0  0  0
   -2.8637    0.8447    1.2575 C   0  0  0  0  0  0  0  0  0  0  0  0
   -2.3705    2.2762    1.4781 C   0  0  0  0  0  0  0  0  0  0  0  0
   -1.3459    2.3433    2.6102 C   0  0  0  0  0  0  0  0  0  0  0  0
   -0.8242    3.7578    2.8033 C   0  0  0  0  0  0  0  0  0  0  0  0
    2.9379    6.1161   -0.1804 H   0  0  0  0  0  0  0  0  0  0  0  0
    2.6113    6.2679    1.5544 H   0  0  0  0  0  0  0  0  0  0  0  0
    1.3163    5.7700    0.4522 H   0  0  0  0  0  0  0  0  0  0  0  0
    3.8510    4.1736    1.1024 H   0  0  0  0  0  0  0  0  0  0  0  0
    2.2421    3.8417    1.7447 H   0  0  0  0  0  0  0  0  0  0  0  0
    1.3987    3.4131   -0.5813 H   0  0  0  0  0  0  0  0  0  0  0  0
    2.9858    3.8146   -1.2293 H   0  0  0  0  0  0  0  0  0  0  0  0
    2.8293    1.4388   -1.2047 H   0  0  0  0  0  0  0  0  0  0  0  0
    3.9878    1.8881    0.0427 H   0  0  0  0  0  0  0  0  0  0  0  0
    2.2109    1.5768    1.7936 H   0  0  0  0  0  0  0  0  0  0  0  0
    1.0430    1.1828    0.5285 H   0  0  0  0  0  0  0  0  0  0  0  0
    3.6084   -0.3860    1.1225 H   0  0  0  0  0  0  0  0  0  0  0  0
    2.4403   -0.7802   -0.1401 H   0  0  0  0  0  0  0  0  0  0  0  0
    1.8246   -0.6648    2.8677 H   0  0  0  0  0  0  0  0  0  0  0  0
    0.6620   -1.0557    1.5990 H   0  0  0  0  0  0  0  0  0  0  0  0
    3.1929   -2.6560    2.2637 H   0  0  0  0  0  0  0  0  0  0  0  0
    1.5565   -3.1242    2.7100 H   0  0  0  0  0  0  0  0  0  0  0  0
    2.2646   -5.6909   -0.5883 H   0  0  0  0  0  0  0  0  0  0  0  0
    2.2338   -6.6367   -2.8815 H   0  0  0  0  0  0  0  0  0  0  0  0
    0.7726   -5.6392   -4.6214 H   0  0  0  0  0  0  0  0  0  0  0  0
   -0.6387   -3.6738   -4.0884 H   0  0  0  0  0  0  0  0  0  0  0  0
   -2.4296   -0.4834   -1.9102 H   0  0  0  0  0  0  0  0  0  0  0  0
   -3.7273   -1.4521   -2.6006 H   0  0  0  0  0  0  0  0  0  0  0  0
   -4.0693   -2.6577   -0.4768 H   0  0  0  0  0  0  0  0  0  0  0  0
   -2.7563   -1.8141    0.2882 H   0  0  0  0  0  0  0  0  0  0  0  0
   -5.0056   -0.9216    0.9128 H   0  0  0  0  0  0  0  0  0  0  0  0
   -5.3408   -0.5426   -0.7685 H   0  0  0  0  0  0  0  0  0  0  0  0
   -3.5221    1.1583   -0.7804 H   0  0  0  0  0  0  0  0  0  0  0  0
   -4.7505    1.4727    0.4313 H   0  0  0  0  0  0  0  0  0  0  0  0
   -3.2751    0.4484    2.1937 H   0  0  0  0  0  0  0  0  0  0  0  0
   -2.0104    0.2144    0.9833 H   0  0  0  0  0  0  0  0  0  0  0  0
   -3.2199    2.9279    1.7162 H   0  0  0  0  0  0  0  0  0  0  0  0
   -1.9223    2.6544    0.5511 H   0  0  0  0  0  0  0  0  0  0  0  0
   -1.8010    1.9963    3.5452 H   0  0  0  0  0  0  0  0  0  0  0  0
   -0.5052    1.6753    2.3944 H   0  0  0  0  0  0  0  0  0  0  0  0
   -0.3532    4.1297    1.8882 H   0  0  0  0  0  0  0  0  0  0  0  0
   -0.0785    3.7816    3.6040 H   0  0  0  0  0  0  0  0  0  0  0  0
   -1.6356    4.4412    3.0733 H   0  0  0  0  0  0  0  0  0  0  0  0
  1  2  1  0
  2  3  1  0
  3  4  1  0
  4  5  1  0
  5  6  1  0
  6  7  1  0
  7  8  1  0
  8  9  1  0
  9 10  1  0
 10 11  2  0
 10 12  1  0
 12 13  2  0
 13 14  1  0
 14 15  2  0
 15 16  1  0
 16 17  2  0
 17 18  1  0
 18 19  2  0
 18 20  1  0
 20 21  1  0
 21 22  1  0
 22 23  1  0
 23 24  1  0
 24 25  1  0
 25 26  1  0
 26 27  1  0
 27 28  1  0
 17 12  1  0
  1 29  1  0
  1 30  1  0
  1 31  1  0
  2 32  1  0
  2 33  1  0
  3 34  1  0
  3 35  1  0
  4 36  1  0
  4 37  1  0
  5 38  1  0
  5 39  1  0
  6 40  1  0
  6 41  1  0
  7 42  1  0
  7 43  1  0
  8 44  1  0
  8 45  1  0
 13 46  1  0
 14 47  1  0
 15 48  1  0
 16 49  1  0
 21 50  1  0
 21 51  1  0
 22 52  1  0
 22 53  1  0
 23 54  1  0
 23 55  1  0
 24 56  1  0
 24 57  1  0
 25 58  1  0
 25 59  1  0
 26 60  1  0
 26 61  1  0
 27 62  1  0
 27 63  1  0
 28 64  1  0
 28 65  1  0
 28 66  1  0
M  END
>  <Energy>  (4) 
15.922461961352436

>  <Real charge>  (4) 
0

>  <Mult>  (4) 
1

$$$$
mol_969 459
     RDKit          3D

 66 66  0  0  0  0  0  0  0  0999 V2000
    0.3484    2.8348   -2.3492 C   0  0  0  0  0  0  0  0  0  0  0  0
    0.9878    3.4094   -1.0951 C   0  0  0  0  0  0  0  0  0  0  0  0
    2.4156    2.9163   -0.8511 C   0  0  0  0  0  0  0  0  0  0  0  0
    2.5082    1.4098   -0.5905 C   0  0  0  0  0  0  0  0  0  0  0  0
    3.9337    1.0069   -0.2042 C   0  0  0  0  0  0  0  0  0  0  0  0
    4.0761   -0.4803    0.1324 C   0  0  0  0  0  0  0  0  0  0  0  0
    3.9093   -1.3951   -1.0854 C   0  0  0  0  0  0  0  0  0  0  0  0
    4.2451   -2.8494   -0.7567 C   0  0  0  0  0  0  0  0  0  0  0  0
    3.3678   -3.3598    0.2583 O   0  0  0  0  0  0  0  0  0  0  0  0
    2.2103   -3.9046   -0.1912 C   0  0  0  0  0  0  0  0  0  0  0  0
    1.8612   -4.0222   -1.3527 O   0  0  0  0  0  0  0  0  0  0  0  0
    1.3985   -4.3400    0.9655 C   0  0  0  0  0  0  0  0  0  0  0  0
    2.0189   -5.0056    2.0352 C   0  0  0  0  0  0  0  0  0  0  0  0
    1.2543   -5.5021    3.0936 C   0  0  0  0  0  0  0  0  0  0  0  0
   -0.1317   -5.3494    3.0870 C   0  0  0  0  0  0  0  0  0  0  0  0
   -0.7560   -4.6878    2.0287 C   0  0  0  0  0  0  0  0  0  0  0  0
    0.0085   -4.1695    0.9730 C   0  0  0  0  0  0  0  0  0  0  0  0
   -0.7139   -3.4377   -0.0837 C   0  0  0  0  0  0  0  0  0  0  0  0
   -1.7376   -3.8429   -0.6067 O   0  0  0  0  0  0  0  0  0  0  0  0
   -0.1205   -2.2328   -0.2597 O   0  0  0  0  0  0  0  0  0  0  0  0
   -0.6975   -1.4057   -1.2787 C   0  0  0  0  0  0  0  0  0  0  0  0
   -1.8748   -0.5923   -0.7421 C   0  0  0  0  0  0  0  0  0  0  0  0
   -1.4809    0.2786    0.4543 C   0  0  0  0  0  0  0  0  0  0  0  0
   -2.6411    1.1080    1.0116 C   0  0  0  0  0  0  0  0  0  0  0  0
   -3.1175    2.2039    0.0555 C   0  0  0  0  0  0  0  0  0  0  0  0
   -4.1928    3.0776    0.7052 C   0  0  0  0  0  0  0  0  0  0  0  0
   -4.6681    4.1737   -0.2483 C   0  0  0  0  0  0  0  0  0  0  0  0
   -5.7357    5.0456    0.3932 C   0  0  0  0  0  0  0  0  0  0  0  0
    0.9676    3.0294   -3.2305 H   0  0  0  0  0  0  0  0  0  0  0  0
   -0.6314    3.2943   -2.5150 H   0  0  0  0  0  0  0  0  0  0  0  0
    0.1960    1.7554   -2.2645 H   0  0  0  0  0  0  0  0  0  0  0  0
    0.3616    3.1783   -0.2260 H   0  0  0  0  0  0  0  0  0  0  0  0
    1.0094    4.5021   -1.1850 H   0  0  0  0  0  0  0  0  0  0  0  0
    3.0465    3.1803   -1.7087 H   0  0  0  0  0  0  0  0  0  0  0  0
    2.8180    3.4570    0.0145 H   0  0  0  0  0  0  0  0  0  0  0  0
    2.2004    0.8637   -1.4876 H   0  0  0  0  0  0  0  0  0  0  0  0
    1.8208    1.1320    0.2168 H   0  0  0  0  0  0  0  0  0  0  0  0
    4.6276    1.2710   -1.0114 H   0  0  0  0  0  0  0  0  0  0  0  0
    4.2398    1.5856    0.6763 H   0  0  0  0  0  0  0  0  0  0  0  0
    5.0746   -0.6365    0.5595 H   0  0  0  0  0  0  0  0  0  0  0  0
    3.3532   -0.7524    0.9108 H   0  0  0  0  0  0  0  0  0  0  0  0
    2.8766   -1.3348   -1.4454 H   0  0  0  0  0  0  0  0  0  0  0  0
    4.5644   -1.0555   -1.8957 H   0  0  0  0  0  0  0  0  0  0  0  0
    5.2660   -2.9227   -0.3662 H   0  0  0  0  0  0  0  0  0  0  0  0
    4.2091   -3.4716   -1.6589 H   0  0  0  0  0  0  0  0  0  0  0  0
    3.0964   -5.1573    2.0411 H   0  0  0  0  0  0  0  0  0  0  0  0
    1.7394   -6.0207    3.9178 H   0  0  0  0  0  0  0  0  0  0  0  0
   -0.7273   -5.7460    3.9064 H   0  0  0  0  0  0  0  0  0  0  0  0
   -1.8383   -4.5688    2.0293 H   0  0  0  0  0  0  0  0  0  0  0  0
    0.0934   -0.7329   -1.6268 H   0  0  0  0  0  0  0  0  0  0  0  0
   -1.0004   -2.0084   -2.1434 H   0  0  0  0  0  0  0  0  0  0  0  0
   -2.2619    0.0277   -1.5571 H   0  0  0  0  0  0  0  0  0  0  0  0
   -2.6799   -1.2688   -0.4330 H   0  0  0  0  0  0  0  0  0  0  0  0
   -0.6580    0.9439    0.1727 H   0  0  0  0  0  0  0  0  0  0  0  0
   -1.1057   -0.3624    1.2613 H   0  0  0  0  0  0  0  0  0  0  0  0
   -2.3079    1.5729    1.9479 H   0  0  0  0  0  0  0  0  0  0  0  0
   -3.4782    0.4472    1.2675 H   0  0  0  0  0  0  0  0  0  0  0  0
   -2.2671    2.8300   -0.2393 H   0  0  0  0  0  0  0  0  0  0  0  0
   -3.5243    1.7568   -0.8581 H   0  0  0  0  0  0  0  0  0  0  0  0
   -3.7933    3.5344    1.6189 H   0  0  0  0  0  0  0  0  0  0  0  0
   -5.0442    2.4528    1.0014 H   0  0  0  0  0  0  0  0  0  0  0  0
   -3.8206    4.8025   -0.5450 H   0  0  0  0  0  0  0  0  0  0  0  0
   -5.0732    3.7230   -1.1618 H   0  0  0  0  0  0  0  0  0  0  0  0
   -6.0611    5.8223   -0.3059 H   0  0  0  0  0  0  0  0  0  0  0  0
   -5.3521    5.5374    1.2928 H   0  0  0  0  0  0  0  0  0  0  0  0
   -6.6115    4.4515    0.6728 H   0  0  0  0  0  0  0  0  0  0  0  0
  1  2  1  0
  2  3  1  0
  3  4  1  0
  4  5  1  0
  5  6  1  0
  6  7  1  0
  7  8  1  0
  8  9  1  0
  9 10  1  0
 10 11  2  0
 10 12  1  0
 12 13  2  0
 13 14  1  0
 14 15  2  0
 15 16  1  0
 16 17  2  0
 17 18  1  0
 18 19  2  0
 18 20  1  0
 20 21  1  0
 21 22  1  0
 22 23  1  0
 23 24  1  0
 24 25  1  0
 25 26  1  0
 26 27  1  0
 27 28  1  0
 17 12  1  0
  1 29  1  0
  1 30  1  0
  1 31  1  0
  2 32  1  0
  2 33  1  0
  3 34  1  0
  3 35  1  0
  4 36  1  0
  4 37  1  0
  5 38  1  0
  5 39  1  0
  6 40  1  0
  6 41  1  0
  7 42  1  0
  7 43  1  0
  8 44  1  0
  8 45  1  0
 13 46  1  0
 14 47  1  0
 15 48  1  0
 16 49  1  0
 21 50  1  0
 21 51  1  0
 22 52  1  0
 22 53  1  0
 23 54  1  0
 23 55  1  0
 24 56  1  0
 24 57  1  0
 25 58  1  0
 25 59  1  0
 26 60  1  0
 26 61  1  0
 27 62  1  0
 27 63  1  0
 28 64  1  0
 28 65  1  0
 28 66  1  0
M  END
>  <Energy>  (5) 
16.05617683163442

>  <Real charge>  (5) 
0

>  <Mult>  (5) 
1

$$$$
mol_969 73
     RDKit          3D

 66 66  0  0  0  0  0  0  0  0999 V2000
    4.0150    3.0585    3.5685 C   0  0  0  0  0  0  0  0  0  0  0  0
    4.0470    3.2396    2.0589 C   0  0  0  0  0  0  0  0  0  0  0  0
    4.1635    1.9233    1.2874 C   0  0  0  0  0  0  0  0  0  0  0  0
    2.9424    1.0161    1.4506 C   0  0  0  0  0  0  0  0  0  0  0  0
    3.0551   -0.2313    0.5693 C   0  0  0  0  0  0  0  0  0  0  0  0
    1.8274   -1.1284    0.7316 C   0  0  0  0  0  0  0  0  0  0  0  0
    1.9052   -2.4283   -0.0759 C   0  0  0  0  0  0  0  0  0  0  0  0
    1.9530   -2.2284   -1.5887 C   0  0  0  0  0  0  0  0  0  0  0  0
    0.8337   -1.4321   -1.9935 O   0  0  0  0  0  0  0  0  0  0  0  0
    0.8322   -1.1122   -3.3095 C   0  0  0  0  0  0  0  0  0  0  0  0
    1.6888   -1.3791   -4.1349 O   0  0  0  0  0  0  0  0  0  0  0  0
   -0.3162   -0.2289   -3.5798 C   0  0  0  0  0  0  0  0  0  0  0  0
   -0.0386    0.9967   -4.2047 C   0  0  0  0  0  0  0  0  0  0  0  0
   -1.0645    1.9119   -4.4424 C   0  0  0  0  0  0  0  0  0  0  0  0
   -2.3708    1.6063   -4.0653 C   0  0  0  0  0  0  0  0  0  0  0  0
   -2.6562    0.3795   -3.4616 C   0  0  0  0  0  0  0  0  0  0  0  0
   -1.6298   -0.5492   -3.2176 C   0  0  0  0  0  0  0  0  0  0  0  0
   -1.9647   -1.8751   -2.6503 C   0  0  0  0  0  0  0  0  0  0  0  0
   -1.4442   -2.9225   -2.9897 O   0  0  0  0  0  0  0  0  0  0  0  0
   -2.9217   -1.7144   -1.7048 O   0  0  0  0  0  0  0  0  0  0  0  0
   -3.3326   -2.9022   -1.0134 C   0  0  0  0  0  0  0  0  0  0  0  0
   -2.3797   -3.2494    0.1305 C   0  0  0  0  0  0  0  0  0  0  0  0
   -1.9615   -2.0602    1.0022 C   0  0  0  0  0  0  0  0  0  0  0  0
   -3.1390   -1.3180    1.6368 C   0  0  0  0  0  0  0  0  0  0  0  0
   -2.7098   -0.1937    2.5868 C   0  0  0  0  0  0  0  0  0  0  0  0
   -1.7798    0.8690    1.9910 C   0  0  0  0  0  0  0  0  0  0  0  0
   -2.3433    1.5577    0.7475 C   0  0  0  0  0  0  0  0  0  0  0  0
   -1.3849    2.6130    0.2166 C   0  0  0  0  0  0  0  0  0  0  0  0
    3.1082    2.5389    3.8914 H   0  0  0  0  0  0  0  0  0  0  0  0
    4.8833    2.4892    3.9148 H   0  0  0  0  0  0  0  0  0  0  0  0
    4.0306    4.0347    4.0639 H   0  0  0  0  0  0  0  0  0  0  0  0
    4.9071    3.8695    1.8020 H   0  0  0  0  0  0  0  0  0  0  0  0
    3.1502    3.7822    1.7377 H   0  0  0  0  0  0  0  0  0  0  0  0
    5.0668    1.3888    1.6057 H   0  0  0  0  0  0  0  0  0  0  0  0
    4.2950    2.1607    0.2244 H   0  0  0  0  0  0  0  0  0  0  0  0
    2.8410    0.7077    2.4972 H   0  0  0  0  0  0  0  0  0  0  0  0
    2.0342    1.5709    1.1853 H   0  0  0  0  0  0  0  0  0  0  0  0
    3.1584    0.0785   -0.4766 H   0  0  0  0  0  0  0  0  0  0  0  0
    3.9593   -0.7915    0.8356 H   0  0  0  0  0  0  0  0  0  0  0  0
    0.9301   -0.5687    0.4459 H   0  0  0  0  0  0  0  0  0  0  0  0
    1.7088   -1.3897    1.7905 H   0  0  0  0  0  0  0  0  0  0  0  0
    1.0144   -3.0200    0.1673 H   0  0  0  0  0  0  0  0  0  0  0  0
    2.7757   -3.0137    0.2415 H   0  0  0  0  0  0  0  0  0  0  0  0
    1.8975   -3.2045   -2.0849 H   0  0  0  0  0  0  0  0  0  0  0  0
    2.8896   -1.7387   -1.8784 H   0  0  0  0  0  0  0  0  0  0  0  0
    0.9811    1.2415   -4.4979 H   0  0  0  0  0  0  0  0  0  0  0  0
   -0.8438    2.8630   -4.9219 H   0  0  0  0  0  0  0  0  0  0  0  0
   -3.1712    2.3189   -4.2528 H   0  0  0  0  0  0  0  0  0  0  0  0
   -3.6860    0.1473   -3.1974 H   0  0  0  0  0  0  0  0  0  0  0  0
   -3.4352   -3.7441   -1.7086 H   0  0  0  0  0  0  0  0  0  0  0  0
   -4.3347   -2.7061   -0.6174 H   0  0  0  0  0  0  0  0  0  0  0  0
   -1.4655   -3.6831   -0.2926 H   0  0  0  0  0  0  0  0  0  0  0  0
   -2.8352   -4.0285    0.7527 H   0  0  0  0  0  0  0  0  0  0  0  0
   -1.3698   -1.3710    0.3911 H   0  0  0  0  0  0  0  0  0  0  0  0
   -1.2952   -2.4271    1.7925 H   0  0  0  0  0  0  0  0  0  0  0  0
   -3.7516   -2.0314    2.2018 H   0  0  0  0  0  0  0  0  0  0  0  0
   -3.7900   -0.9009    0.8611 H   0  0  0  0  0  0  0  0  0  0  0  0
   -3.6130    0.2988    2.9681 H   0  0  0  0  0  0  0  0  0  0  0  0
   -2.2111   -0.6376    3.4575 H   0  0  0  0  0  0  0  0  0  0  0  0
   -1.5877    1.6250    2.7630 H   0  0  0  0  0  0  0  0  0  0  0  0
   -0.8077    0.4209    1.7597 H   0  0  0  0  0  0  0  0  0  0  0  0
   -3.3041    2.0274    0.9867 H   0  0  0  0  0  0  0  0  0  0  0  0
   -2.5262    0.8281   -0.0478 H   0  0  0  0  0  0  0  0  0  0  0  0
   -1.1948    3.3855    0.9683 H   0  0  0  0  0  0  0  0  0  0  0  0
   -1.8074    3.0968   -0.6697 H   0  0  0  0  0  0  0  0  0  0  0  0
   -0.4270    2.1644   -0.0666 H   0  0  0  0  0  0  0  0  0  0  0  0
  1  2  1  0
  2  3  1  0
  3  4  1  0
  4  5  1  0
  5  6  1  0
  6  7  1  0
  7  8  1  0
  8  9  1  0
  9 10  1  0
 10 11  2  0
 10 12  1  0
 12 13  2  0
 13 14  1  0
 14 15  2  0
 15 16  1  0
 16 17  2  0
 17 18  1  0
 18 19  2  0
 18 20  1  0
 20 21  1  0
 21 22  1  0
 22 23  1  0
 23 24  1  0
 24 25  1  0
 25 26  1  0
 26 27  1  0
 27 28  1  0
 17 12  1  0
  1 29  1  0
  1 30  1  0
  1 31  1  0
  2 32  1  0
  2 33  1  0
  3 34  1  0
  3 35  1  0
  4 36  1  0
  4 37  1  0
  5 38  1  0
  5 39  1  0
  6 40  1  0
  6 41  1  0
  7 42  1  0
  7 43  1  0
  8 44  1  0
  8 45  1  0
 13 46  1  0
 14 47  1  0
 15 48  1  0
 16 49  1  0
 21 50  1  0
 21 51  1  0
 22 52  1  0
 22 53  1  0
 23 54  1  0
 23 55  1  0
 24 56  1  0
 24 57  1  0
 25 58  1  0
 25 59  1  0
 26 60  1  0
 26 61  1  0
 27 62  1  0
 27 63  1  0
 28 64  1  0
 28 65  1  0
 28 66  1  0
M  END
>  <Energy>  (6) 
16.098649594324225

>  <Real charge>  (6) 
0

>  <Mult>  (6) 
1

$$$$
