mol_1041 18
     RDKit          3D

 19 19  0  0  0  0  0  0  0  0999 V2000
   -1.6572    1.5678    0.4724 C   0  0  0  0  0  0  0  0  0  0  0  0
   -0.4215    0.7533    0.2030 C   0  0  0  0  0  0  0  0  0  0  0  0
    0.8381    1.3726    0.2671 C   0  0  0  0  0  0  0  0  0  0  0  0
    2.0059    0.6483    0.0231 C   0  0  0  0  0  0  0  0  0  0  0  0
    1.9163   -0.7019   -0.2866 C   0  0  0  0  0  0  0  0  0  0  0  0
    3.0297   -1.4501   -0.5327 O   0  0  0  0  0  0  0  0  0  0  0  0
    0.6811   -1.3360   -0.3558 C   0  0  0  0  0  0  0  0  0  0  0  0
   -0.5009   -0.6190   -0.1126 C   0  0  0  0  0  0  0  0  0  0  0  0
   -1.8225   -1.3318   -0.1946 C   0  0  0  0  0  0  0  0  0  0  0  0
   -1.4101    2.6101    0.7001 H   0  0  0  0  0  0  0  0  0  0  0  0
   -2.3109    1.5687   -0.4055 H   0  0  0  0  0  0  0  0  0  0  0  0
   -2.1997    1.1626    1.3324 H   0  0  0  0  0  0  0  0  0  0  0  0
    0.9165    2.4304    0.5093 H   0  0  0  0  0  0  0  0  0  0  0  0
    2.9649    1.1523    0.0796 H   0  0  0  0  0  0  0  0  0  0  0  0
    3.8091   -0.8773   -0.4487 H   0  0  0  0  0  0  0  0  0  0  0  0
    0.6461   -2.3946   -0.6009 H   0  0  0  0  0  0  0  0  0  0  0  0
   -1.6944   -2.3891   -0.4498 H   0  0  0  0  0  0  0  0  0  0  0  0
   -2.4508   -0.8801   -0.9687 H   0  0  0  0  0  0  0  0  0  0  0  0
   -2.3396   -1.2862    0.7691 H   0  0  0  0  0  0  0  0  0  0  0  0
  1  2  1  0
  2  3  2  0
  3  4  1  0
  4  5  2  0
  5  6  1  0
  5  7  1  0
  7  8  2  0
  8  9  1  0
  8  2  1  0
  1 10  1  0
  1 11  1  0
  1 12  1  0
  3 13  1  0
  4 14  1  0
  6 15  1  0
  7 16  1  0
  9 17  1  0
  9 18  1  0
  9 19  1  0
M  END
>  <Energy>  (1) 
11.30825052566134

>  <Real charge>  (1) 
0

>  <Mult>  (1) 
1

$$$$
