mol_273 64
     RDKit          3D

 47 49  0  0  0  0  0  0  0  0999 V2000
   -2.0412    1.6285   -4.0725 C   0  0  0  0  0  0  0  0  0  0  0  0
   -1.3296    1.6397   -2.7405 C   0  0  0  0  0  0  0  0  0  0  0  0
   -0.3993    2.8191   -2.5744 C   0  0  0  0  0  0  0  0  0  0  0  0
   -0.9277    0.3409   -2.0575 C   0  0  0  0  0  0  0  0  0  0  0  0
   -1.1564   -0.9616   -2.7021 C   0  0  0  0  0  0  0  0  0  0  0  0
   -1.6096   -2.0941   -2.1362 C   0  0  0  0  0  0  0  0  0  0  0  0
   -2.0958   -2.2251   -0.3334 Br  0  0  0  0  0  0  0  0  0  0  0  0
   -1.7854   -3.6682   -3.1375 Br  0  0  0  0  0  0  0  0  0  0  0  0
   -2.1132    1.1345   -1.5391 C   0  0  0  0  0  0  0  0  0  0  0  0
   -2.0606    1.8306   -0.2320 C   0  0  0  0  0  0  0  0  0  0  0  0
   -2.7867    2.7763    0.0281 O   0  0  0  0  0  0  0  0  0  0  0  0
   -1.1539    1.2753    0.6038 O   0  0  0  0  0  0  0  0  0  0  0  0
   -1.0388    1.9139    1.8899 C   0  0  0  0  0  0  0  0  0  0  0  0
   -0.2585    3.1689    1.7960 C   0  0  0  0  0  0  0  0  0  0  0  0
    0.3603    4.1491    1.7089 N   0  0  0  0  0  0  0  0  0  0  0  0
   -0.3601    0.9114    2.8126 C   0  0  0  0  0  0  0  0  0  0  0  0
   -0.8317    0.7120    4.1203 C   0  0  0  0  0  0  0  0  0  0  0  0
   -0.1969   -0.1939    4.9735 C   0  0  0  0  0  0  0  0  0  0  0  0
    0.9124   -0.9142    4.5313 C   0  0  0  0  0  0  0  0  0  0  0  0
    1.3834   -0.7391    3.2318 C   0  0  0  0  0  0  0  0  0  0  0  0
    2.5038   -1.4567    2.8740 O   0  0  0  0  0  0  0  0  0  0  0  0
    2.5338   -1.9659    1.5965 C   0  0  0  0  0  0  0  0  0  0  0  0
    3.6020   -1.6042    0.7763 C   0  0  0  0  0  0  0  0  0  0  0  0
    3.6851   -2.1181   -0.5181 C   0  0  0  0  0  0  0  0  0  0  0  0
    2.7124   -3.0061   -0.9802 C   0  0  0  0  0  0  0  0  0  0  0  0
    1.6599   -3.3874   -0.1470 C   0  0  0  0  0  0  0  0  0  0  0  0
    1.5704   -2.8707    1.1460 C   0  0  0  0  0  0  0  0  0  0  0  0
    0.7660    0.1840    2.3833 C   0  0  0  0  0  0  0  0  0  0  0  0
   -2.7850    0.8281   -4.1448 H   0  0  0  0  0  0  0  0  0  0  0  0
   -2.5653    2.5774   -4.2291 H   0  0  0  0  0  0  0  0  0  0  0  0
   -1.3207    1.4967   -4.8863 H   0  0  0  0  0  0  0  0  0  0  0  0
    0.1700    2.7743   -1.6401 H   0  0  0  0  0  0  0  0  0  0  0  0
   -0.9676    3.7550   -2.5798 H   0  0  0  0  0  0  0  0  0  0  0  0
    0.3222    2.8499   -3.3977 H   0  0  0  0  0  0  0  0  0  0  0  0
   -0.0053    0.3616   -1.4806 H   0  0  0  0  0  0  0  0  0  0  0  0
   -0.8843   -1.0028   -3.7559 H   0  0  0  0  0  0  0  0  0  0  0  0
   -3.1058    0.7420   -1.7429 H   0  0  0  0  0  0  0  0  0  0  0  0
   -2.0442    2.1176    2.2808 H   0  0  0  0  0  0  0  0  0  0  0  0
   -1.6938    1.2639    4.4912 H   0  0  0  0  0  0  0  0  0  0  0  0
   -0.5643   -0.3361    5.9871 H   0  0  0  0  0  0  0  0  0  0  0  0
    1.4089   -1.6134    5.1991 H   0  0  0  0  0  0  0  0  0  0  0  0
    4.3627   -0.9207    1.1429 H   0  0  0  0  0  0  0  0  0  0  0  0
    4.5122   -1.8330   -1.1631 H   0  0  0  0  0  0  0  0  0  0  0  0
    2.7818   -3.4120   -1.9865 H   0  0  0  0  0  0  0  0  0  0  0  0
    0.9134   -4.0933   -0.5020 H   0  0  0  0  0  0  0  0  0  0  0  0
    0.7572   -3.1783    1.7972 H   0  0  0  0  0  0  0  0  0  0  0  0
    1.1640    0.3440    1.3832 H   0  0  0  0  0  0  0  0  0  0  0  0
  1  2  1  0
  2  3  1  0
  2  4  1  0
  4  5  1  0
  5  6  2  3
  6  7  1  0
  6  8  1  0
  4  9  1  0
  9 10  1  0
 10 11  2  0
 10 12  1  0
 12 13  1  0
 13 14  1  0
 14 15  3  0
 13 16  1  0
 16 17  2  0
 17 18  1  0
 18 19  2  0
 19 20  1  0
 20 21  1  0
 21 22  1  0
 22 23  2  0
 23 24  1  0
 24 25  2  0
 25 26  1  0
 26 27  2  0
 20 28  2  0
  9  2  1  0
 28 16  1  0
 27 22  1  0
  1 29  1  0
  1 30  1  0
  1 31  1  0
  3 32  1  0
  3 33  1  0
  3 34  1  0
  4 35  1  0
  5 36  1  0
  9 37  1  0
 13 38  1  0
 17 39  1  0
 18 40  1  0
 19 41  1  0
 23 42  1  0
 24 43  1  0
 25 44  1  0
 26 45  1  0
 27 46  1  0
 28 47  1  0
M  END
>  <Energy>  (1) 
68.0060270833002

>  <Real charge>  (1) 
0

>  <Mult>  (1) 
1

$$$$
mol_273 137
     RDKit          3D

 47 49  0  0  0  0  0  0  0  0999 V2000
   -2.8706    0.2123    3.0374 C   0  0  0  0  0  0  0  0  0  0  0  0
   -2.0836   -0.0471    1.7750 C   0  0  0  0  0  0  0  0  0  0  0  0
   -2.6975    0.5974    0.5527 C   0  0  0  0  0  0  0  0  0  0  0  0
   -0.5682   -0.1534    1.7918 C   0  0  0  0  0  0  0  0  0  0  0  0
    0.1989    0.0881    3.0233 C   0  0  0  0  0  0  0  0  0  0  0  0
    1.4220   -0.3772    3.3318 C   0  0  0  0  0  0  0  0  0  0  0  0
    2.2521    0.0930    4.9447 Br  0  0  0  0  0  0  0  0  0  0  0  0
    2.4128   -1.4967    2.2085 Br  0  0  0  0  0  0  0  0  0  0  0  0
   -1.4079   -1.4092    1.6595 C   0  0  0  0  0  0  0  0  0  0  0  0
   -1.4225   -2.1633    0.3844 C   0  0  0  0  0  0  0  0  0  0  0  0
   -2.4595   -2.4610   -0.1867 O   0  0  0  0  0  0  0  0  0  0  0  0
   -0.1690   -2.4552   -0.0286 O   0  0  0  0  0  0  0  0  0  0  0  0
   -0.0706   -2.9786   -1.3657 C   0  0  0  0  0  0  0  0  0  0  0  0
    1.0608   -3.9296   -1.4383 C   0  0  0  0  0  0  0  0  0  0  0  0
    1.9368   -4.6918   -1.4919 N   0  0  0  0  0  0  0  0  0  0  0  0
    0.1231   -1.8054   -2.3145 C   0  0  0  0  0  0  0  0  0  0  0  0
   -0.6009   -1.7287   -3.5147 C   0  0  0  0  0  0  0  0  0  0  0  0
   -0.4197   -0.6509   -4.3857 C   0  0  0  0  0  0  0  0  0  0  0  0
    0.4760    0.3686   -4.0640 C   0  0  0  0  0  0  0  0  0  0  0  0
    1.1826    0.3161   -2.8652 C   0  0  0  0  0  0  0  0  0  0  0  0
    2.0641    1.3405   -2.5997 O   0  0  0  0  0  0  0  0  0  0  0  0
    1.9769    1.8957   -1.3429 C   0  0  0  0  0  0  0  0  0  0  0  0
    0.8156    2.5414   -0.9124 C   0  0  0  0  0  0  0  0  0  0  0  0
    0.7760    3.1151    0.3588 C   0  0  0  0  0  0  0  0  0  0  0  0
    1.8960    3.0486    1.1894 C   0  0  0  0  0  0  0  0  0  0  0  0
    3.0606    2.4187    0.7471 C   0  0  0  0  0  0  0  0  0  0  0  0
    3.1059    1.8500   -0.5259 C   0  0  0  0  0  0  0  0  0  0  0  0
    1.0313   -0.7761   -2.0077 C   0  0  0  0  0  0  0  0  0  0  0  0
   -3.9146   -0.0892    2.9006 H   0  0  0  0  0  0  0  0  0  0  0  0
   -2.4809   -0.3429    3.8971 H   0  0  0  0  0  0  0  0  0  0  0  0
   -2.8520    1.2790    3.2839 H   0  0  0  0  0  0  0  0  0  0  0  0
   -3.6933    0.1837    0.3631 H   0  0  0  0  0  0  0  0  0  0  0  0
   -2.7976    1.6770    0.7069 H   0  0  0  0  0  0  0  0  0  0  0  0
   -2.0918    0.4494   -0.3478 H   0  0  0  0  0  0  0  0  0  0  0  0
   -0.0497    0.1921    0.9000 H   0  0  0  0  0  0  0  0  0  0  0  0
   -0.2686    0.7592    3.7415 H   0  0  0  0  0  0  0  0  0  0  0  0
   -1.4768   -2.0626    2.5238 H   0  0  0  0  0  0  0  0  0  0  0  0
   -0.9801   -3.5318   -1.6326 H   0  0  0  0  0  0  0  0  0  0  0  0
   -1.3131   -2.5070   -3.7845 H   0  0  0  0  0  0  0  0  0  0  0  0
   -0.9789   -0.6053   -5.3174 H   0  0  0  0  0  0  0  0  0  0  0  0
    0.6174    1.2052   -4.7428 H   0  0  0  0  0  0  0  0  0  0  0  0
   -0.0522    2.6033   -1.5627 H   0  0  0  0  0  0  0  0  0  0  0  0
   -0.1255    3.6169    0.7005 H   0  0  0  0  0  0  0  0  0  0  0  0
    1.8655    3.4961    2.1798 H   0  0  0  0  0  0  0  0  0  0  0  0
    3.9348    2.3756    1.3919 H   0  0  0  0  0  0  0  0  0  0  0  0
    4.0134    1.3661   -0.8761 H   0  0  0  0  0  0  0  0  0  0  0  0
    1.6227   -0.8261   -1.0956 H   0  0  0  0  0  0  0  0  0  0  0  0
  1  2  1  0
  2  3  1  0
  2  4  1  0
  4  5  1  0
  5  6  2  3
  6  7  1  0
  6  8  1  0
  4  9  1  0
  9 10  1  0
 10 11  2  0
 10 12  1  0
 12 13  1  0
 13 14  1  0
 14 15  3  0
 13 16  1  0
 16 17  2  0
 17 18  1  0
 18 19  2  0
 19 20  1  0
 20 21  1  0
 21 22  1  0
 22 23  2  0
 23 24  1  0
 24 25  2  0
 25 26  1  0
 26 27  2  0
 20 28  2  0
  9  2  1  0
 28 16  1  0
 27 22  1  0
  1 29  1  0
  1 30  1  0
  1 31  1  0
  3 32  1  0
  3 33  1  0
  3 34  1  0
  4 35  1  0
  5 36  1  0
  9 37  1  0
 13 38  1  0
 17 39  1  0
 18 40  1  0
 19 41  1  0
 23 42  1  0
 24 43  1  0
 25 44  1  0
 26 45  1  0
 27 46  1  0
 28 47  1  0
M  END
>  <Energy>  (2) 
68.16864583695396

>  <Real charge>  (2) 
0

>  <Mult>  (2) 
1

$$$$
mol_273 215
     RDKit          3D

 47 49  0  0  0  0  0  0  0  0999 V2000
   -4.6826    0.0162   -0.9318 C   0  0  0  0  0  0  0  0  0  0  0  0
   -3.2256   -0.3410   -1.1090 C   0  0  0  0  0  0  0  0  0  0  0  0
   -2.8620   -0.6564   -2.5408 C   0  0  0  0  0  0  0  0  0  0  0  0
   -2.1523    0.3157   -0.2572 C   0  0  0  0  0  0  0  0  0  0  0  0
   -2.4882    1.3582    0.7250 C   0  0  0  0  0  0  0  0  0  0  0  0
   -2.6656    2.6708    0.4946 C   0  0  0  0  0  0  0  0  0  0  0  0
   -2.5333    3.4413   -1.2055 Br  0  0  0  0  0  0  0  0  0  0  0  0
   -3.0622    3.8519    1.8935 Br  0  0  0  0  0  0  0  0  0  0  0  0
   -2.5672   -1.1179    0.0216 C   0  0  0  0  0  0  0  0  0  0  0  0
   -1.6366   -2.2380   -0.2472 C   0  0  0  0  0  0  0  0  0  0  0  0
   -2.0110   -3.3041   -0.7073 O   0  0  0  0  0  0  0  0  0  0  0  0
   -0.3700   -1.9243    0.1048 O   0  0  0  0  0  0  0  0  0  0  0  0
    0.6003   -2.9701   -0.1006 C   0  0  0  0  0  0  0  0  0  0  0  0
    0.6089   -3.9067    1.0446 C   0  0  0  0  0  0  0  0  0  0  0  0
    0.6078   -4.6387    1.9474 N   0  0  0  0  0  0  0  0  0  0  0  0
    1.9579   -2.3038   -0.2828 C   0  0  0  0  0  0  0  0  0  0  0  0
    2.9314   -2.8936   -1.1071 C   0  0  0  0  0  0  0  0  0  0  0  0
    4.1835   -2.2952   -1.2710 C   0  0  0  0  0  0  0  0  0  0  0  0
    4.4777   -1.0966   -0.6222 C   0  0  0  0  0  0  0  0  0  0  0  0
    3.5179   -0.4926    0.1861 C   0  0  0  0  0  0  0  0  0  0  0  0
    3.8706    0.6809    0.8150 O   0  0  0  0  0  0  0  0  0  0  0  0
    2.9331    1.6896    0.8122 C   0  0  0  0  0  0  0  0  0  0  0  0
    2.3583    2.1647   -0.3695 C   0  0  0  0  0  0  0  0  0  0  0  0
    1.4340    3.2083   -0.3176 C   0  0  0  0  0  0  0  0  0  0  0  0
    1.0961    3.7813    0.9092 C   0  0  0  0  0  0  0  0  0  0  0  0
    1.6866    3.3174    2.0854 C   0  0  0  0  0  0  0  0  0  0  0  0
    2.6140    2.2761    2.0368 C   0  0  0  0  0  0  0  0  0  0  0  0
    2.2774   -1.1060    0.3815 C   0  0  0  0  0  0  0  0  0  0  0  0
   -4.9231    0.9277   -1.4884 H   0  0  0  0  0  0  0  0  0  0  0  0
   -5.3168   -0.7922   -1.3113 H   0  0  0  0  0  0  0  0  0  0  0  0
   -4.9518    0.1778    0.1172 H   0  0  0  0  0  0  0  0  0  0  0  0
   -1.7916   -0.8511   -2.6664 H   0  0  0  0  0  0  0  0  0  0  0  0
   -3.4094   -1.5394   -2.8866 H   0  0  0  0  0  0  0  0  0  0  0  0
   -3.1220    0.1856   -3.1909 H   0  0  0  0  0  0  0  0  0  0  0  0
   -1.1747    0.4646   -0.7127 H   0  0  0  0  0  0  0  0  0  0  0  0
   -2.5736    1.0157    1.7553 H   0  0  0  0  0  0  0  0  0  0  0  0
   -3.1832   -1.3072    0.8960 H   0  0  0  0  0  0  0  0  0  0  0  0
    0.3676   -3.5059   -1.0303 H   0  0  0  0  0  0  0  0  0  0  0  0
    2.7274   -3.8295   -1.6253 H   0  0  0  0  0  0  0  0  0  0  0  0
    4.9326   -2.7649   -1.9043 H   0  0  0  0  0  0  0  0  0  0  0  0
    5.4520   -0.6322   -0.7494 H   0  0  0  0  0  0  0  0  0  0  0  0
    2.6321    1.7342   -1.3284 H   0  0  0  0  0  0  0  0  0  0  0  0
    0.9850    3.5822   -1.2342 H   0  0  0  0  0  0  0  0  0  0  0  0
    0.3804    4.5991    0.9472 H   0  0  0  0  0  0  0  0  0  0  0  0
    1.4308    3.7731    3.0385 H   0  0  0  0  0  0  0  0  0  0  0  0
    3.0828    1.9197    2.9497 H   0  0  0  0  0  0  0  0  0  0  0  0
    1.5565   -0.6446    1.0535 H   0  0  0  0  0  0  0  0  0  0  0  0
  1  2  1  0
  2  3  1  0
  2  4  1  0
  4  5  1  0
  5  6  2  3
  6  7  1  0
  6  8  1  0
  4  9  1  0
  9 10  1  0
 10 11  2  0
 10 12  1  0
 12 13  1  0
 13 14  1  0
 14 15  3  0
 13 16  1  0
 16 17  2  0
 17 18  1  0
 18 19  2  0
 19 20  1  0
 20 21  1  0
 21 22  1  0
 22 23  2  0
 23 24  1  0
 24 25  2  0
 25 26  1  0
 26 27  2  0
 20 28  2  0
  9  2  1  0
 28 16  1  0
 27 22  1  0
  1 29  1  0
  1 30  1  0
  1 31  1  0
  3 32  1  0
  3 33  1  0
  3 34  1  0
  4 35  1  0
  5 36  1  0
  9 37  1  0
 13 38  1  0
 17 39  1  0
 18 40  1  0
 19 41  1  0
 23 42  1  0
 24 43  1  0
 25 44  1  0
 26 45  1  0
 27 46  1  0
 28 47  1  0
M  END
>  <Energy>  (3) 
68.3007897341848

>  <Real charge>  (3) 
0

>  <Mult>  (3) 
1

$$$$
mol_273 344
     RDKit          3D

 47 49  0  0  0  0  0  0  0  0999 V2000
   -4.4473    0.5861   -1.7701 C   0  0  0  0  0  0  0  0  0  0  0  0
   -3.1604   -0.1320   -1.4396 C   0  0  0  0  0  0  0  0  0  0  0  0
   -2.8871   -1.3086   -2.3474 C   0  0  0  0  0  0  0  0  0  0  0  0
   -1.9532    0.6356   -0.9276 C   0  0  0  0  0  0  0  0  0  0  0  0
   -1.9864    2.1002   -0.7906 C   0  0  0  0  0  0  0  0  0  0  0  0
   -1.6920    3.0133   -1.7325 C   0  0  0  0  0  0  0  0  0  0  0  0
   -1.7692    4.8469   -1.3561 Br  0  0  0  0  0  0  0  0  0  0  0  0
   -1.1785    2.5618   -3.4740 Br  0  0  0  0  0  0  0  0  0  0  0  0
   -2.7711   -0.2128    0.0298 C   0  0  0  0  0  0  0  0  0  0  0  0
   -2.2211   -1.4599    0.6117 C   0  0  0  0  0  0  0  0  0  0  0  0
   -2.9346   -2.3856    0.9614 O   0  0  0  0  0  0  0  0  0  0  0  0
   -0.8756   -1.4095    0.7262 O   0  0  0  0  0  0  0  0  0  0  0  0
   -0.2567   -2.6013    1.2509 C   0  0  0  0  0  0  0  0  0  0  0  0
   -0.1701   -3.6578    0.2179 C   0  0  0  0  0  0  0  0  0  0  0  0
   -0.1050   -4.4793   -0.6018 N   0  0  0  0  0  0  0  0  0  0  0  0
    1.1257   -2.1895    1.7371 C   0  0  0  0  0  0  0  0  0  0  0  0
    1.6487   -2.7089    2.9321 C   0  0  0  0  0  0  0  0  0  0  0  0
    2.9191   -2.3303    3.3740 C   0  0  0  0  0  0  0  0  0  0  0  0
    3.6783   -1.4233    2.6344 C   0  0  0  0  0  0  0  0  0  0  0  0
    3.1683   -0.8893    1.4531 C   0  0  0  0  0  0  0  0  0  0  0  0
    3.9778   -0.0135    0.7631 O   0  0  0  0  0  0  0  0  0  0  0  0
    3.3616    1.0505    0.1443 C   0  0  0  0  0  0  0  0  0  0  0  0
    2.5869    1.9697    0.8568 C   0  0  0  0  0  0  0  0  0  0  0  0
    2.0013    3.0451    0.1879 C   0  0  0  0  0  0  0  0  0  0  0  0
    2.2031    3.2066   -1.1836 C   0  0  0  0  0  0  0  0  0  0  0  0
    2.9940    2.2975   -1.8878 C   0  0  0  0  0  0  0  0  0  0  0  0
    3.5826    1.2223   -1.2218 C   0  0  0  0  0  0  0  0  0  0  0  0
    1.9131   -1.2932    0.9905 C   0  0  0  0  0  0  0  0  0  0  0  0
   -4.3894    1.0314   -2.7687 H   0  0  0  0  0  0  0  0  0  0  0  0
   -4.6797    1.3830   -1.0560 H   0  0  0  0  0  0  0  0  0  0  0  0
   -5.2859   -0.1184   -1.7582 H   0  0  0  0  0  0  0  0  0  0  0  0
   -3.6590   -2.0745   -2.2194 H   0  0  0  0  0  0  0  0  0  0  0  0
   -1.9147   -1.7717   -2.1499 H   0  0  0  0  0  0  0  0  0  0  0  0
   -2.8915   -0.9872   -3.3943 H   0  0  0  0  0  0  0  0  0  0  0  0
   -0.9705    0.2597   -1.2068 H   0  0  0  0  0  0  0  0  0  0  0  0
   -2.2609    2.4707    0.1958 H   0  0  0  0  0  0  0  0  0  0  0  0
   -3.4229    0.3029    0.7291 H   0  0  0  0  0  0  0  0  0  0  0  0
   -0.8343   -2.9547    2.1148 H   0  0  0  0  0  0  0  0  0  0  0  0
    1.0758   -3.4165    3.5292 H   0  0  0  0  0  0  0  0  0  0  0  0
    3.3197   -2.7433    4.2969 H   0  0  0  0  0  0  0  0  0  0  0  0
    4.6662   -1.1307    2.9804 H   0  0  0  0  0  0  0  0  0  0  0  0
    2.4431    1.8548    1.9273 H   0  0  0  0  0  0  0  0  0  0  0  0
    1.3967    3.7628    0.7361 H   0  0  0  0  0  0  0  0  0  0  0  0
    1.7524    4.0483   -1.7040 H   0  0  0  0  0  0  0  0  0  0  0  0
    3.1566    2.4308   -2.9544 H   0  0  0  0  0  0  0  0  0  0  0  0
    4.2051    0.5176   -1.7660 H   0  0  0  0  0  0  0  0  0  0  0  0
    1.5409   -0.9057    0.0440 H   0  0  0  0  0  0  0  0  0  0  0  0
  1  2  1  0
  2  3  1  0
  2  4  1  0
  4  5  1  0
  5  6  2  3
  6  7  1  0
  6  8  1  0
  4  9  1  0
  9 10  1  0
 10 11  2  0
 10 12  1  0
 12 13  1  0
 13 14  1  0
 14 15  3  0
 13 16  1  0
 16 17  2  0
 17 18  1  0
 18 19  2  0
 19 20  1  0
 20 21  1  0
 21 22  1  0
 22 23  2  0
 23 24  1  0
 24 25  2  0
 25 26  1  0
 26 27  2  0
 20 28  2  0
  9  2  1  0
 28 16  1  0
 27 22  1  0
  1 29  1  0
  1 30  1  0
  1 31  1  0
  3 32  1  0
  3 33  1  0
  3 34  1  0
  4 35  1  0
  5 36  1  0
  9 37  1  0
 13 38  1  0
 17 39  1  0
 18 40  1  0
 19 41  1  0
 23 42  1  0
 24 43  1  0
 25 44  1  0
 26 45  1  0
 27 46  1  0
 28 47  1  0
M  END
>  <Energy>  (4) 
68.45908528039799

>  <Real charge>  (4) 
0

>  <Mult>  (4) 
1

$$$$
mol_273 466
     RDKit          3D

 47 49  0  0  0  0  0  0  0  0999 V2000
   -1.3911    3.5035   -1.3682 C   0  0  0  0  0  0  0  0  0  0  0  0
   -0.2000    3.5939   -0.4434 C   0  0  0  0  0  0  0  0  0  0  0  0
    0.1221    5.0096   -0.0270 C   0  0  0  0  0  0  0  0  0  0  0  0
    0.0255    2.4285    0.5080 C   0  0  0  0  0  0  0  0  0  0  0  0
    0.4919    2.6490    1.8860 C   0  0  0  0  0  0  0  0  0  0  0  0
    1.3987    1.9346    2.5759 C   0  0  0  0  0  0  0  0  0  0  0  0
    1.8123    2.3616    4.3530 Br  0  0  0  0  0  0  0  0  0  0  0  0
    2.3193    0.4706    1.8628 Br  0  0  0  0  0  0  0  0  0  0  0  0
    0.9784    2.6555   -0.6517 C   0  0  0  0  0  0  0  0  0  0  0  0
    1.0262    1.7083   -1.7904 C   0  0  0  0  0  0  0  0  0  0  0  0
    1.3060    2.0653   -2.9231 O   0  0  0  0  0  0  0  0  0  0  0  0
    0.7478    0.4443   -1.4014 O   0  0  0  0  0  0  0  0  0  0  0  0
    0.8335   -0.5539   -2.4350 C   0  0  0  0  0  0  0  0  0  0  0  0
    2.2340   -1.0009   -2.6070 C   0  0  0  0  0  0  0  0  0  0  0  0
    3.3343   -1.3491   -2.7464 N   0  0  0  0  0  0  0  0  0  0  0  0
   -0.0749   -1.7188   -2.0532 C   0  0  0  0  0  0  0  0  0  0  0  0
   -0.5454   -2.5929   -3.0488 C   0  0  0  0  0  0  0  0  0  0  0  0
   -1.3779   -3.6644   -2.7203 C   0  0  0  0  0  0  0  0  0  0  0  0
   -1.7476   -3.8814   -1.3938 C   0  0  0  0  0  0  0  0  0  0  0  0
   -1.2748   -3.0393   -0.3880 C   0  0  0  0  0  0  0  0  0  0  0  0
   -1.7261   -3.3084    0.8867 O   0  0  0  0  0  0  0  0  0  0  0  0
   -0.9288   -2.9336    1.9413 C   0  0  0  0  0  0  0  0  0  0  0  0
    0.3387   -3.4877    2.1296 C   0  0  0  0  0  0  0  0  0  0  0  0
    1.1010   -3.1035    3.2328 C   0  0  0  0  0  0  0  0  0  0  0  0
    0.5900   -2.1820    4.1487 C   0  0  0  0  0  0  0  0  0  0  0  0
   -0.6865   -1.6473    3.9677 C   0  0  0  0  0  0  0  0  0  0  0  0
   -1.4521   -2.0305    2.8666 C   0  0  0  0  0  0  0  0  0  0  0  0
   -0.4488   -1.9596   -0.7173 C   0  0  0  0  0  0  0  0  0  0  0  0
   -1.1844    4.0281   -2.3069 H   0  0  0  0  0  0  0  0  0  0  0  0
   -2.2674    3.9658   -0.9016 H   0  0  0  0  0  0  0  0  0  0  0  0
   -1.6544    2.4684   -1.6104 H   0  0  0  0  0  0  0  0  0  0  0  0
   -0.6952    5.4237    0.5726 H   0  0  0  0  0  0  0  0  0  0  0  0
    0.2538    5.6429   -0.9108 H   0  0  0  0  0  0  0  0  0  0  0  0
    1.0426    5.0751    0.5625 H   0  0  0  0  0  0  0  0  0  0  0  0
   -0.6761    1.5998    0.4346 H   0  0  0  0  0  0  0  0  0  0  0  0
    0.0036    3.4714    2.4070 H   0  0  0  0  0  0  0  0  0  0  0  0
    1.9613    3.0586   -0.4239 H   0  0  0  0  0  0  0  0  0  0  0  0
    0.4464   -0.1386   -3.3749 H   0  0  0  0  0  0  0  0  0  0  0  0
   -0.2691   -2.4461   -4.0921 H   0  0  0  0  0  0  0  0  0  0  0  0
   -1.7408   -4.3311   -3.4991 H   0  0  0  0  0  0  0  0  0  0  0  0
   -2.4026   -4.7117   -1.1422 H   0  0  0  0  0  0  0  0  0  0  0  0
    0.7323   -4.2142    1.4244 H   0  0  0  0  0  0  0  0  0  0  0  0
    2.0928   -3.5235    3.3801 H   0  0  0  0  0  0  0  0  0  0  0  0
    1.1871   -1.8834    5.0070 H   0  0  0  0  0  0  0  0  0  0  0  0
   -1.0851   -0.9376    4.6878 H   0  0  0  0  0  0  0  0  0  0  0  0
   -2.4502   -1.6254    2.7274 H   0  0  0  0  0  0  0  0  0  0  0  0
   -0.1006   -1.2940    0.0690 H   0  0  0  0  0  0  0  0  0  0  0  0
  1  2  1  0
  2  3  1  0
  2  4  1  0
  4  5  1  0
  5  6  2  3
  6  7  1  0
  6  8  1  0
  4  9  1  0
  9 10  1  0
 10 11  2  0
 10 12  1  0
 12 13  1  0
 13 14  1  0
 14 15  3  0
 13 16  1  0
 16 17  2  0
 17 18  1  0
 18 19  2  0
 19 20  1  0
 20 21  1  0
 21 22  1  0
 22 23  2  0
 23 24  1  0
 24 25  2  0
 25 26  1  0
 26 27  2  0
 20 28  2  0
  9  2  1  0
 28 16  1  0
 27 22  1  0
  1 29  1  0
  1 30  1  0
  1 31  1  0
  3 32  1  0
  3 33  1  0
  3 34  1  0
  4 35  1  0
  5 36  1  0
  9 37  1  0
 13 38  1  0
 17 39  1  0
 18 40  1  0
 19 41  1  0
 23 42  1  0
 24 43  1  0
 25 44  1  0
 26 45  1  0
 27 46  1  0
 28 47  1  0
M  END
>  <Energy>  (5) 
68.75109654143105

>  <Real charge>  (5) 
0

>  <Mult>  (5) 
1

$$$$
mol_273 337
     RDKit          3D

 47 49  0  0  0  0  0  0  0  0999 V2000
   -3.6979    1.9147    0.9149 C   0  0  0  0  0  0  0  0  0  0  0  0
   -2.3748    1.1902    0.8387 C   0  0  0  0  0  0  0  0  0  0  0  0
   -1.2308    2.0858    0.4238 C   0  0  0  0  0  0  0  0  0  0  0  0
   -2.2983   -0.2638    0.4016 C   0  0  0  0  0  0  0  0  0  0  0  0
   -3.5034   -1.0038   -0.0076 C   0  0  0  0  0  0  0  0  0  0  0  0
   -4.1347   -0.9608   -1.1938 C   0  0  0  0  0  0  0  0  0  0  0  0
   -3.5807    0.1172   -2.6173 Br  0  0  0  0  0  0  0  0  0  0  0  0
   -5.6591   -2.0033   -1.5121 Br  0  0  0  0  0  0  0  0  0  0  0  0
   -2.1351    0.0943    1.8673 C   0  0  0  0  0  0  0  0  0  0  0  0
   -0.8316   -0.0317    2.5578 C   0  0  0  0  0  0  0  0  0  0  0  0
   -0.4641    0.7816    3.3908 O   0  0  0  0  0  0  0  0  0  0  0  0
   -0.1655   -1.1486    2.1820 O   0  0  0  0  0  0  0  0  0  0  0  0
    1.1227   -1.3164    2.8031 C   0  0  0  0  0  0  0  0  0  0  0  0
    1.4180   -2.7624    2.9269 C   0  0  0  0  0  0  0  0  0  0  0  0
    1.6340   -3.8992    3.0372 N   0  0  0  0  0  0  0  0  0  0  0  0
    2.1687   -0.5978    1.9666 C   0  0  0  0  0  0  0  0  0  0  0  0
    3.0212    0.3491    2.5586 C   0  0  0  0  0  0  0  0  0  0  0  0
    3.9933    1.0047    1.7997 C   0  0  0  0  0  0  0  0  0  0  0  0
    4.1196    0.7314    0.4391 C   0  0  0  0  0  0  0  0  0  0  0  0
    3.2612   -0.1835   -0.1662 C   0  0  0  0  0  0  0  0  0  0  0  0
    3.4487   -0.4308   -1.5072 O   0  0  0  0  0  0  0  0  0  0  0  0
    2.3231   -0.4170   -2.2992 C   0  0  0  0  0  0  0  0  0  0  0  0
    2.1238   -1.5043   -3.1494 C   0  0  0  0  0  0  0  0  0  0  0  0
    1.0149   -1.5281   -3.9951 C   0  0  0  0  0  0  0  0  0  0  0  0
    0.1197   -0.4578   -4.0008 C   0  0  0  0  0  0  0  0  0  0  0  0
    0.3334    0.6398   -3.1656 C   0  0  0  0  0  0  0  0  0  0  0  0
    1.4399    0.6654   -2.3170 C   0  0  0  0  0  0  0  0  0  0  0  0
    2.3022   -0.8611    0.5921 C   0  0  0  0  0  0  0  0  0  0  0  0
   -3.9755    2.3101   -0.0673 H   0  0  0  0  0  0  0  0  0  0  0  0
   -4.5115    1.2707    1.2645 H   0  0  0  0  0  0  0  0  0  0  0  0
   -3.6251    2.7566    1.6118 H   0  0  0  0  0  0  0  0  0  0  0  0
   -1.4412    2.5406   -0.5499 H   0  0  0  0  0  0  0  0  0  0  0  0
   -1.0909    2.8884    1.1553 H   0  0  0  0  0  0  0  0  0  0  0  0
   -0.2851    1.5412    0.3361 H   0  0  0  0  0  0  0  0  0  0  0  0
   -1.4039   -0.5763   -0.1345 H   0  0  0  0  0  0  0  0  0  0  0  0
   -3.9074   -1.6786    0.7461 H   0  0  0  0  0  0  0  0  0  0  0  0
   -2.9636   -0.1245    2.5350 H   0  0  0  0  0  0  0  0  0  0  0  0
    1.1084   -0.9101    3.8232 H   0  0  0  0  0  0  0  0  0  0  0  0
    2.9364    0.5865    3.6181 H   0  0  0  0  0  0  0  0  0  0  0  0
    4.6539    1.7290    2.2704 H   0  0  0  0  0  0  0  0  0  0  0  0
    4.8802    1.2361   -0.1506 H   0  0  0  0  0  0  0  0  0  0  0  0
    2.8279   -2.3318   -3.1496 H   0  0  0  0  0  0  0  0  0  0  0  0
    0.8522   -2.3769   -4.6542 H   0  0  0  0  0  0  0  0  0  0  0  0
   -0.7413   -0.4747   -4.6648 H   0  0  0  0  0  0  0  0  0  0  0  0
   -0.3578    1.4784   -3.1832 H   0  0  0  0  0  0  0  0  0  0  0  0
    1.6134    1.5305   -1.6837 H   0  0  0  0  0  0  0  0  0  0  0  0
    1.6625   -1.5991    0.1119 H   0  0  0  0  0  0  0  0  0  0  0  0
  1  2  1  0
  2  3  1  0
  2  4  1  0
  4  5  1  0
  5  6  2  3
  6  7  1  0
  6  8  1  0
  4  9  1  0
  9 10  1  0
 10 11  2  0
 10 12  1  0
 12 13  1  0
 13 14  1  0
 14 15  3  0
 13 16  1  0
 16 17  2  0
 17 18  1  0
 18 19  2  0
 19 20  1  0
 20 21  1  0
 21 22  1  0
 22 23  2  0
 23 24  1  0
 24 25  2  0
 25 26  1  0
 26 27  2  0
 20 28  2  0
  9  2  1  0
 28 16  1  0
 27 22  1  0
  1 29  1  0
  1 30  1  0
  1 31  1  0
  3 32  1  0
  3 33  1  0
  3 34  1  0
  4 35  1  0
  5 36  1  0
  9 37  1  0
 13 38  1  0
 17 39  1  0
 18 40  1  0
 19 41  1  0
 23 42  1  0
 24 43  1  0
 25 44  1  0
 26 45  1  0
 27 46  1  0
 28 47  1  0
M  END
>  <Energy>  (6) 
68.87702040301379

>  <Real charge>  (6) 
0

>  <Mult>  (6) 
1

$$$$
