mol_420 151
     RDKit          3D

 19 19  0  0  0  0  0  0  0  0999 V2000
    0.2719    2.0271    0.1572 C   0  0  0  0  0  0  0  0  0  0  0  0
    0.0720    0.5381    0.0521 C   0  0  0  0  0  0  0  0  0  0  0  0
   -1.2110   -0.0416   -0.0239 C   0  0  0  0  0  0  0  0  0  0  0  0
   -1.4074   -1.4335   -0.0804 C   0  0  0  0  0  0  0  0  0  0  0  0
   -0.3081   -2.2887   -0.0866 C   0  0  0  0  0  0  0  0  0  0  0  0
    0.9782   -1.7557   -0.0516 C   0  0  0  0  0  0  0  0  0  0  0  0
    1.1569   -0.3614    0.0047 C   0  0  0  0  0  0  0  0  0  0  0  0
    2.5335    0.1207   -0.0005 N   0  0  0  0  0  4  0  0  0  0  0  0
    3.2942   -0.3439    0.8584 O   0  0  0  0  0  1  0  0  0  0  0  0
    2.8433    0.9420   -0.8726 O   0  0  0  0  0  0  0  0  0  0  0  0
   -2.4100    0.7884   -0.0602 N   0  0  0  0  0  4  0  0  0  0  0  0
   -2.4701    1.6596   -0.9367 O   0  0  0  0  0  1  0  0  0  0  0  0
   -3.2868    0.5450    0.7789 O   0  0  0  0  0  0  0  0  0  0  0  0
    1.1753    2.2732    0.7244 H   0  0  0  0  0  0  0  0  0  0  0  0
    0.3438    2.4701   -0.8407 H   0  0  0  0  0  0  0  0  0  0  0  0
   -0.5471    2.5058    0.7036 H   0  0  0  0  0  0  0  0  0  0  0  0
   -2.4123   -1.8524   -0.1239 H   0  0  0  0  0  0  0  0  0  0  0  0
   -0.4531   -3.3665   -0.1296 H   0  0  0  0  0  0  0  0  0  0  0  0
    1.8368   -2.4263   -0.0726 H   0  0  0  0  0  0  0  0  0  0  0  0
  1  2  1  0
  2  3  2  0
  3  4  1  0
  4  5  2  0
  5  6  1  0
  6  7  2  0
  7  8  1  0
  8  9  1  0
  8 10  2  0
  3 11  1  0
 11 12  1  0
 11 13  2  0
  7  2  1  0
  1 14  1  0
  1 15  1  0
  1 16  1  0
  4 17  1  0
  5 18  1  0
  6 19  1  0
M  CHG  4   8   1   9  -1  11   1  12  -1
M  END
>  <Energy>  (1) 
79.42470837062326

>  <Real charge>  (1) 
0

>  <Mult>  (1) 
1

$$$$
