mol_968 97
     RDKit          3D

 21 21  0  0  0  0  0  0  0  0999 V2000
    2.8850    0.3441    0.0040 C   0  0  0  0  0  0  0  0  0  0  0  0
    1.3958    0.1683    0.0418 C   0  0  0  0  0  0  0  0  0  0  0  0
    0.5493    1.2818   -0.0263 C   0  0  0  0  0  0  0  0  0  0  0  0
   -0.8424    1.1261   -0.0232 C   0  0  0  0  0  0  0  0  0  0  0  0
   -1.7399    2.3233   -0.1303 C   0  0  0  0  0  0  0  0  0  0  0  0
   -1.3850   -0.1643    0.0178 C   0  0  0  0  0  0  0  0  0  0  0  0
   -0.5544   -1.2897    0.0863 C   0  0  0  0  0  0  0  0  0  0  0  0
   -1.1448   -2.6687    0.0959 C   0  0  0  0  0  0  0  0  0  0  0  0
    0.8349   -1.1143    0.0822 C   0  0  0  0  0  0  0  0  0  0  0  0
    3.2361    0.3390   -1.0324 H   0  0  0  0  0  0  0  0  0  0  0  0
    3.3874   -0.4598    0.5523 H   0  0  0  0  0  0  0  0  0  0  0  0
    3.1790    1.2890    0.4731 H   0  0  0  0  0  0  0  0  0  0  0  0
    0.9783    2.2803   -0.0848 H   0  0  0  0  0  0  0  0  0  0  0  0
   -2.6941    2.1428    0.3757 H   0  0  0  0  0  0  0  0  0  0  0  0
   -1.2824    3.1982    0.3435 H   0  0  0  0  0  0  0  0  0  0  0  0
   -1.9347    2.5518   -1.1826 H   0  0  0  0  0  0  0  0  0  0  0  0
   -2.4653   -0.2941   -0.0063 H   0  0  0  0  0  0  0  0  0  0  0  0
   -2.1201   -2.6727    0.5939 H   0  0  0  0  0  0  0  0  0  0  0  0
   -0.5000   -3.3660    0.6409 H   0  0  0  0  0  0  0  0  0  0  0  0
   -1.2694   -3.0295   -0.9297 H   0  0  0  0  0  0  0  0  0  0  0  0
    1.4868   -1.9854    0.1085 H   0  0  0  0  0  0  0  0  0  0  0  0
  1  2  1  0
  2  3  2  0
  3  4  1  0
  4  5  1  0
  4  6  2  0
  6  7  1  0
  7  8  1  0
  7  9  2  0
  9  2  1  0
  1 10  1  0
  1 11  1  0
  1 12  1  0
  3 13  1  0
  5 14  1  0
  5 15  1  0
  5 16  1  0
  6 17  1  0
  8 18  1  0
  8 19  1  0
  8 20  1  0
  9 21  1  0
M  END
>  <Energy>  (1) 
22.82389857780703

>  <Real charge>  (1) 
0

>  <Mult>  (1) 
1

$$$$
