mol_160 9
     RDKit          3D

 15 15  0  0  0  0  0  0  0  0999 V2000
   -2.2554   -0.0476    0.1725 C   0  0  0  0  0  0  0  0  0  0  0  0
   -0.7617   -0.0160    0.0333 C   0  0  0  0  0  0  0  0  0  0  0  0
   -0.0287   -1.2093   -0.0094 C   0  0  0  0  0  0  0  0  0  0  0  0
    1.3644   -1.1802   -0.1074 C   0  0  0  0  0  0  0  0  0  0  0  0
    2.0296    0.0428   -0.1523 C   0  0  0  0  0  0  0  0  0  0  0  0
    3.7459    0.0790   -0.2719 Cl  0  0  0  0  0  0  0  0  0  0  0  0
    1.3142    1.2368   -0.0962 C   0  0  0  0  0  0  0  0  0  0  0  0
   -0.0788    1.2071    0.0018 C   0  0  0  0  0  0  0  0  0  0  0  0
   -2.6740   -0.9359   -0.3123 H   0  0  0  0  0  0  0  0  0  0  0  0
   -2.7106    0.8269   -0.3041 H   0  0  0  0  0  0  0  0  0  0  0  0
   -2.5322   -0.0583    1.2312 H   0  0  0  0  0  0  0  0  0  0  0  0
   -0.5387   -2.1694    0.0325 H   0  0  0  0  0  0  0  0  0  0  0  0
    1.9218   -2.1121   -0.1451 H   0  0  0  0  0  0  0  0  0  0  0  0
    1.8325    2.1913   -0.1251 H   0  0  0  0  0  0  0  0  0  0  0  0
   -0.6283    2.1447    0.0525 H   0  0  0  0  0  0  0  0  0  0  0  0
  1  2  1  0
  2  3  2  0
  3  4  1  0
  4  5  2  0
  5  6  1  0
  5  7  1  0
  7  8  2  0
  8  2  1  0
  1  9  1  0
  1 10  1  0
  1 11  1  0
  3 12  1  0
  4 13  1  0
  7 14  1  0
  8 15  1  0
M  END
>  <Energy>  (1) 
17.25440186270423

>  <Real charge>  (1) 
0

>  <Mult>  (1) 
1

$$$$
