mol_327 358
     RDKit          3D

 30 30  0  0  0  0  0  0  0  0999 V2000
   -3.2225   -1.8204    0.3418 C   0  0  0  0  0  0  0  0  0  0  0  0
   -2.0707   -1.2343   -0.4597 C   0  0  0  0  0  0  0  0  0  0  0  0
   -1.5261   -0.0319    0.1720 N   0  0  0  0  0  0  0  0  0  0  0  0
   -2.1155    1.2499   -0.2192 C   0  0  0  0  0  0  0  0  0  0  0  0
   -1.4556    1.8232   -1.4637 C   0  0  0  0  0  0  0  0  0  0  0  0
   -0.5019   -0.1861    1.1091 C   0  0  0  0  0  0  0  0  0  0  0  0
   -0.1103   -1.3079    1.4445 O   0  0  0  0  0  0  0  0  0  0  0  0
    0.0803    1.0872    1.7265 C   0  0  0  0  0  0  0  0  0  0  0  0
    1.7450    0.8223    2.4263 S   0  0  0  0  0  0  0  0  0  0  0  0
    2.5983    0.3289    0.9464 C   0  0  0  0  0  0  0  0  0  0  0  0
    3.5815   -0.6473    1.0005 C   0  0  0  0  0  0  0  0  0  0  0  0
    4.2346   -1.0078   -0.1752 C   0  0  0  0  0  0  0  0  0  0  0  0
    3.8713   -0.3635   -1.3397 C   0  0  0  0  0  0  0  0  0  0  0  0
    4.6092   -0.7324   -2.8386 Cl  0  0  0  0  0  0  0  0  0  0  0  0
    2.9240    0.5934   -1.3775 N   0  0  0  0  0  0  0  0  0  0  0  0
    2.2841    0.9451   -0.2167 N   0  0  0  0  0  0  0  0  0  0  0  0
   -4.0432   -1.1021    0.4364 H   0  0  0  0  0  0  0  0  0  0  0  0
   -3.6093   -2.7183   -0.1498 H   0  0  0  0  0  0  0  0  0  0  0  0
   -2.9019   -2.0946    1.3521 H   0  0  0  0  0  0  0  0  0  0  0  0
   -2.4008   -0.9864   -1.4743 H   0  0  0  0  0  0  0  0  0  0  0  0
   -1.2793   -1.9862   -0.5566 H   0  0  0  0  0  0  0  0  0  0  0  0
   -2.0337    1.9642    0.6051 H   0  0  0  0  0  0  0  0  0  0  0  0
   -3.1865    1.1008   -0.3966 H   0  0  0  0  0  0  0  0  0  0  0  0
   -0.3830    1.9775   -1.3127 H   0  0  0  0  0  0  0  0  0  0  0  0
   -1.9069    2.7860   -1.7226 H   0  0  0  0  0  0  0  0  0  0  0  0
   -1.5750    1.1510   -2.3194 H   0  0  0  0  0  0  0  0  0  0  0  0
    0.1469    1.8965    0.9974 H   0  0  0  0  0  0  0  0  0  0  0  0
   -0.5839    1.4025    2.5371 H   0  0  0  0  0  0  0  0  0  0  0  0
    3.8302   -1.1352    1.9374 H   0  0  0  0  0  0  0  0  0  0  0  0
    5.0006   -1.7743   -0.1725 H   0  0  0  0  0  0  0  0  0  0  0  0
  1  2  1  0
  2  3  1  0
  3  4  1  0
  4  5  1  0
  3  6  1  0
  6  7  2  0
  6  8  1  0
  8  9  1  0
  9 10  1  0
 10 11  2  0
 11 12  1  0
 12 13  2  0
 13 14  1  0
 13 15  1  0
 15 16  2  0
 16 10  1  0
  1 17  1  0
  1 18  1  0
  1 19  1  0
  2 20  1  0
  2 21  1  0
  4 22  1  0
  4 23  1  0
  5 24  1  0
  5 25  1  0
  5 26  1  0
  8 27  1  0
  8 28  1  0
 11 29  1  0
 12 30  1  0
M  END
>  <Energy>  (1) 
25.454374235395736

>  <Real charge>  (1) 
0

>  <Mult>  (1) 
1

$$$$
mol_327 369
     RDKit          3D

 30 30  0  0  0  0  0  0  0  0999 V2000
    0.0698   -2.1203   -1.3443 C   0  0  0  0  0  0  0  0  0  0  0  0
   -1.0875   -1.2029   -1.7103 C   0  0  0  0  0  0  0  0  0  0  0  0
   -1.1920   -0.0722   -0.7877 N   0  0  0  0  0  0  0  0  0  0  0  0
   -2.0021   -0.2832    0.4147 C   0  0  0  0  0  0  0  0  0  0  0  0
   -3.4037    0.2813    0.2497 C   0  0  0  0  0  0  0  0  0  0  0  0
   -0.4551    1.0748   -1.0744 C   0  0  0  0  0  0  0  0  0  0  0  0
    0.2487    1.1414   -2.0889 O   0  0  0  0  0  0  0  0  0  0  0  0
   -0.5398    2.2703   -0.1254 C   0  0  0  0  0  0  0  0  0  0  0  0
    1.1259    2.9051    0.2809 S   0  0  0  0  0  0  0  0  0  0  0  0
    1.8522    1.4140    0.9161 C   0  0  0  0  0  0  0  0  0  0  0  0
    3.1450    1.0590    0.5633 C   0  0  0  0  0  0  0  0  0  0  0  0
    3.6755   -0.1268    1.0647 C   0  0  0  0  0  0  0  0  0  0  0  0
    2.8821   -0.8881    1.8977 C   0  0  0  0  0  0  0  0  0  0  0  0
    3.4308   -2.3680    2.5572 Cl  0  0  0  0  0  0  0  0  0  0  0  0
    1.6321   -0.5249    2.2445 N   0  0  0  0  0  0  0  0  0  0  0  0
    1.1164    0.6460    1.7514 N   0  0  0  0  0  0  0  0  0  0  0  0
    0.1281   -2.9573   -2.0467 H   0  0  0  0  0  0  0  0  0  0  0  0
    1.0235   -1.5830   -1.3717 H   0  0  0  0  0  0  0  0  0  0  0  0
   -0.0524   -2.5277   -0.3356 H   0  0  0  0  0  0  0  0  0  0  0  0
   -2.0341   -1.7551   -1.7030 H   0  0  0  0  0  0  0  0  0  0  0  0
   -0.9443   -0.8326   -2.7316 H   0  0  0  0  0  0  0  0  0  0  0  0
   -2.0585   -1.3583    0.6207 H   0  0  0  0  0  0  0  0  0  0  0  0
   -1.5147    0.1662    1.2820 H   0  0  0  0  0  0  0  0  0  0  0  0
   -3.3809    1.3588    0.0596 H   0  0  0  0  0  0  0  0  0  0  0  0
   -3.9930    0.1060    1.1549 H   0  0  0  0  0  0  0  0  0  0  0  0
   -3.9194   -0.1934   -0.5916 H   0  0  0  0  0  0  0  0  0  0  0  0
   -1.0922    3.0604   -0.6448 H   0  0  0  0  0  0  0  0  0  0  0  0
   -1.0690    2.0712    0.8038 H   0  0  0  0  0  0  0  0  0  0  0  0
    3.7304    1.6815   -0.1061 H   0  0  0  0  0  0  0  0  0  0  0  0
    4.6782   -0.4420    0.8008 H   0  0  0  0  0  0  0  0  0  0  0  0
  1  2  1  0
  2  3  1  0
  3  4  1  0
  4  5  1  0
  3  6  1  0
  6  7  2  0
  6  8  1  0
  8  9  1  0
  9 10  1  0
 10 11  2  0
 11 12  1  0
 12 13  2  0
 13 14  1  0
 13 15  1  0
 15 16  2  0
 16 10  1  0
  1 17  1  0
  1 18  1  0
  1 19  1  0
  2 20  1  0
  2 21  1  0
  4 22  1  0
  4 23  1  0
  5 24  1  0
  5 25  1  0
  5 26  1  0
  8 27  1  0
  8 28  1  0
 11 29  1  0
 12 30  1  0
M  END
>  <Energy>  (2) 
25.68493438135971

>  <Real charge>  (2) 
0

>  <Mult>  (2) 
1

$$$$
mol_327 78
     RDKit          3D

 30 30  0  0  0  0  0  0  0  0999 V2000
   -2.2179   -0.1184    1.6823 C   0  0  0  0  0  0  0  0  0  0  0  0
   -2.5316   -0.8214    0.3723 C   0  0  0  0  0  0  0  0  0  0  0  0
   -1.6615   -0.4017   -0.7292 N   0  0  0  0  0  0  0  0  0  0  0  0
   -2.0021    0.8395   -1.4279 C   0  0  0  0  0  0  0  0  0  0  0  0
   -1.1688    2.0274   -0.9664 C   0  0  0  0  0  0  0  0  0  0  0  0
   -0.4788   -1.0496   -1.0978 C   0  0  0  0  0  0  0  0  0  0  0  0
    0.1804   -0.6642   -2.0683 O   0  0  0  0  0  0  0  0  0  0  0  0
   -0.0552   -2.2675   -0.2737 C   0  0  0  0  0  0  0  0  0  0  0  0
    1.7365   -2.5983   -0.3998 S   0  0  0  0  0  0  0  0  0  0  0  0
    2.3509   -1.0466    0.2148 C   0  0  0  0  0  0  0  0  0  0  0  0
    3.4816   -0.4717   -0.3451 C   0  0  0  0  0  0  0  0  0  0  0  0
    3.9308    0.7481    0.1539 C   0  0  0  0  0  0  0  0  0  0  0  0
    3.2256    1.3204    1.1924 C   0  0  0  0  0  0  0  0  0  0  0  0
    3.6887    2.8196    1.8746 Cl  0  0  0  0  0  0  0  0  0  0  0  0
    2.1371    0.7446    1.7384 N   0  0  0  0  0  0  0  0  0  0  0  0
    1.6996   -0.4571    1.2442 N   0  0  0  0  0  0  0  0  0  0  0  0
   -2.8273   -0.5362    2.4898 H   0  0  0  0  0  0  0  0  0  0  0  0
   -2.4403    0.9506    1.6194 H   0  0  0  0  0  0  0  0  0  0  0  0
   -1.1645   -0.2272    1.9559 H   0  0  0  0  0  0  0  0  0  0  0  0
   -3.5719   -0.6335    0.0832 H   0  0  0  0  0  0  0  0  0  0  0  0
   -2.4480   -1.9035    0.5104 H   0  0  0  0  0  0  0  0  0  0  0  0
   -3.0684    1.0508   -1.2926 H   0  0  0  0  0  0  0  0  0  0  0  0
   -1.8415    0.6880   -2.5018 H   0  0  0  0  0  0  0  0  0  0  0  0
   -1.4483    2.9240   -1.5284 H   0  0  0  0  0  0  0  0  0  0  0  0
   -0.0993    1.8519   -1.1197 H   0  0  0  0  0  0  0  0  0  0  0  0
   -1.3198    2.2346    0.0963 H   0  0  0  0  0  0  0  0  0  0  0  0
   -0.2943   -2.1448    0.7840 H   0  0  0  0  0  0  0  0  0  0  0  0
   -0.5946   -3.1396   -0.6556 H   0  0  0  0  0  0  0  0  0  0  0  0
    3.9993   -0.9510   -1.1697 H   0  0  0  0  0  0  0  0  0  0  0  0
    4.8036    1.2329   -0.2671 H   0  0  0  0  0  0  0  0  0  0  0  0
  1  2  1  0
  2  3  1  0
  3  4  1  0
  4  5  1  0
  3  6  1  0
  6  7  2  0
  6  8  1  0
  8  9  1  0
  9 10  1  0
 10 11  2  0
 11 12  1  0
 12 13  2  0
 13 14  1  0
 13 15  1  0
 15 16  2  0
 16 10  1  0
  1 17  1  0
  1 18  1  0
  1 19  1  0
  2 20  1  0
  2 21  1  0
  4 22  1  0
  4 23  1  0
  5 24  1  0
  5 25  1  0
  5 26  1  0
  8 27  1  0
  8 28  1  0
 11 29  1  0
 12 30  1  0
M  END
>  <Energy>  (3) 
25.86280092560059

>  <Real charge>  (3) 
0

>  <Mult>  (3) 
1

$$$$
mol_327 389
     RDKit          3D

 30 30  0  0  0  0  0  0  0  0999 V2000
   -1.7208    0.7027    2.3297 C   0  0  0  0  0  0  0  0  0  0  0  0
   -2.1990   -0.3595    1.3519 C   0  0  0  0  0  0  0  0  0  0  0  0
   -1.6133   -0.1735    0.0234 N   0  0  0  0  0  0  0  0  0  0  0  0
   -2.3698    0.6460   -0.9261 C   0  0  0  0  0  0  0  0  0  0  0  0
   -3.3815   -0.1818   -1.7032 C   0  0  0  0  0  0  0  0  0  0  0  0
   -0.3764   -0.7715   -0.2400 C   0  0  0  0  0  0  0  0  0  0  0  0
    0.1925   -1.4538    0.6165 O   0  0  0  0  0  0  0  0  0  0  0  0
    0.2135   -0.5490   -1.6344 C   0  0  0  0  0  0  0  0  0  0  0  0
    1.8382   -1.3491   -1.8542 S   0  0  0  0  0  0  0  0  0  0  0  0
    2.7779   -0.4060   -0.6748 C   0  0  0  0  0  0  0  0  0  0  0  0
    3.7245   -1.0305    0.1233 C   0  0  0  0  0  0  0  0  0  0  0  0
    4.4480   -0.2625    1.0317 C   0  0  0  0  0  0  0  0  0  0  0  0
    4.1891    1.0915    1.0829 C   0  0  0  0  0  0  0  0  0  0  0  0
    5.0213    2.1248    2.1635 Cl  0  0  0  0  0  0  0  0  0  0  0  0
    3.2782    1.6898    0.2911 N   0  0  0  0  0  0  0  0  0  0  0  0
    2.5673    0.9288   -0.6014 N   0  0  0  0  0  0  0  0  0  0  0  0
   -0.6320    0.6752    2.4417 H   0  0  0  0  0  0  0  0  0  0  0  0
   -2.1703    0.5428    3.3145 H   0  0  0  0  0  0  0  0  0  0  0  0
   -1.9950    1.7057    1.9872 H   0  0  0  0  0  0  0  0  0  0  0  0
   -1.9304   -1.3501    1.7356 H   0  0  0  0  0  0  0  0  0  0  0  0
   -3.2910   -0.3355    1.2680 H   0  0  0  0  0  0  0  0  0  0  0  0
   -2.8792    1.4421   -0.3715 H   0  0  0  0  0  0  0  0  0  0  0  0
   -1.6930    1.1384   -1.6277 H   0  0  0  0  0  0  0  0  0  0  0  0
   -3.9276    0.4513   -2.4093 H   0  0  0  0  0  0  0  0  0  0  0  0
   -2.8912   -0.9808   -2.2678 H   0  0  0  0  0  0  0  0  0  0  0  0
   -4.1094   -0.6489   -1.0320 H   0  0  0  0  0  0  0  0  0  0  0  0
   -0.4644   -0.9864   -2.3727 H   0  0  0  0  0  0  0  0  0  0  0  0
    0.3181    0.5194   -1.8383 H   0  0  0  0  0  0  0  0  0  0  0  0
    3.8891   -2.1010    0.0569 H   0  0  0  0  0  0  0  0  0  0  0  0
    5.1868   -0.7184    1.6800 H   0  0  0  0  0  0  0  0  0  0  0  0
  1  2  1  0
  2  3  1  0
  3  4  1  0
  4  5  1  0
  3  6  1  0
  6  7  2  0
  6  8  1  0
  8  9  1  0
  9 10  1  0
 10 11  2  0
 11 12  1  0
 12 13  2  0
 13 14  1  0
 13 15  1  0
 15 16  2  0
 16 10  1  0
  1 17  1  0
  1 18  1  0
  1 19  1  0
  2 20  1  0
  2 21  1  0
  4 22  1  0
  4 23  1  0
  5 24  1  0
  5 25  1  0
  5 26  1  0
  8 27  1  0
  8 28  1  0
 11 29  1  0
 12 30  1  0
M  END
>  <Energy>  (4) 
26.164592746378823

>  <Real charge>  (4) 
0

>  <Mult>  (4) 
1

$$$$
