mol_851 81
     RDKit          3D

 36 39  0  0  0  0  0  0  0  0999 V2000
   -1.9210    2.9499   -0.3387 C   0  0  0  0  0  0  0  0  0  0  0  0
   -1.3923    1.5382   -0.1630 C   0  0  0  0  0  0  0  0  0  0  0  0
    0.0014    1.3201    0.0242 C   0  0  0  0  0  0  0  0  0  0  0  0
    0.8494    2.5312    0.3665 C   0  0  0  0  0  0  0  0  0  0  0  0
    0.5726   -0.0003   -0.0062 C   0  0  0  0  0  0  0  0  0  0  0  0
    2.0068   -0.3177   -0.1126 C   0  0  0  0  0  0  0  0  0  0  0  0
    3.0350    0.5914   -0.4885 C   0  0  0  0  0  0  0  0  0  0  0  0
    4.3937    0.2528   -0.5343 C   0  0  0  0  0  0  0  0  0  0  0  0
    4.7910   -1.0351   -0.2299 C   0  0  0  0  0  0  0  0  0  0  0  0
    3.8228   -1.9817    0.0769 C   0  0  0  0  0  0  0  0  0  0  0  0
    2.4574   -1.6421    0.1084 C   0  0  0  0  0  0  0  0  0  0  0  0
    1.5358   -2.6479    0.3348 C   0  0  0  0  0  0  0  0  0  0  0  0
    0.1736   -2.3757    0.2864 C   0  0  0  0  0  0  0  0  0  0  0  0
   -0.3545   -1.0799    0.0910 C   0  0  0  0  0  0  0  0  0  0  0  0
   -1.7814   -0.8650    0.0113 C   0  0  0  0  0  0  0  0  0  0  0  0
   -2.7406   -1.9200    0.0535 C   0  0  0  0  0  0  0  0  0  0  0  0
   -4.1181   -1.7121   -0.0388 C   0  0  0  0  0  0  0  0  0  0  0  0
   -4.5996   -0.4287   -0.1769 C   0  0  0  0  0  0  0  0  0  0  0  0
   -3.6979    0.6308   -0.2236 C   0  0  0  0  0  0  0  0  0  0  0  0
   -2.2916    0.4468   -0.1388 C   0  0  0  0  0  0  0  0  0  0  0  0
   -2.6873    2.9894   -1.1197 H   0  0  0  0  0  0  0  0  0  0  0  0
   -1.1503    3.6456   -0.6831 H   0  0  0  0  0  0  0  0  0  0  0  0
   -2.3344    3.3186    0.6050 H   0  0  0  0  0  0  0  0  0  0  0  0
    1.6980    2.2651    1.0032 H   0  0  0  0  0  0  0  0  0  0  0  0
    1.1882    3.0392   -0.5408 H   0  0  0  0  0  0  0  0  0  0  0  0
    0.2857    3.2446    0.9787 H   0  0  0  0  0  0  0  0  0  0  0  0
    2.7926    1.5977   -0.8100 H   0  0  0  0  0  0  0  0  0  0  0  0
    5.1291    0.9993   -0.8222 H   0  0  0  0  0  0  0  0  0  0  0  0
    5.8406   -1.3116   -0.2612 H   0  0  0  0  0  0  0  0  0  0  0  0
    4.1418   -3.0034    0.2740 H   0  0  0  0  0  0  0  0  0  0  0  0
    1.8558   -3.6737    0.5043 H   0  0  0  0  0  0  0  0  0  0  0  0
   -0.4740   -3.2355    0.4266 H   0  0  0  0  0  0  0  0  0  0  0  0
   -2.4320   -2.9563    0.1503 H   0  0  0  0  0  0  0  0  0  0  0  0
   -4.8014   -2.5559   -0.0021 H   0  0  0  0  0  0  0  0  0  0  0  0
   -5.6676   -0.2435   -0.2446 H   0  0  0  0  0  0  0  0  0  0  0  0
   -4.1272    1.6254   -0.3133 H   0  0  0  0  0  0  0  0  0  0  0  0
  1  2  1  0
  2  3  2  0
  3  4  1  0
  3  5  1  0
  5  6  2  0
  6  7  1  0
  7  8  2  0
  8  9  1  0
  9 10  2  0
 10 11  1  0
 11 12  2  0
 12 13  1  0
 13 14  2  0
 14 15  1  0
 15 16  2  0
 16 17  1  0
 17 18  2  0
 18 19  1  0
 19 20  2  0
 20  2  1  0
 14  5  1  0
 11  6  1  0
 20 15  1  0
  1 21  1  0
  1 22  1  0
  1 23  1  0
  4 24  1  0
  4 25  1  0
  4 26  1  0
  7 27  1  0
  8 28  1  0
  9 29  1  0
 10 30  1  0
 12 31  1  0
 13 32  1  0
 16 33  1  0
 17 34  1  0
 18 35  1  0
 19 36  1  0
M  END
>  <Energy>  (1) 
99.48017847092042

>  <Real charge>  (1) 
0

>  <Mult>  (1) 
1

$$$$
