mol_135 166
     RDKit          3D

 26 26  0  0  0  0  0  0  0  0999 V2000
    3.6559    0.2786   -0.2255 C   0  0  0  0  0  0  0  0  0  0  0  0
    2.1621    0.1734   -0.1214 C   0  0  0  0  0  0  0  0  0  0  0  0
    1.4127    1.1459    0.4263 C   0  0  0  0  0  0  0  0  0  0  0  0
   -0.0880    1.0976    0.5094 C   0  0  0  0  0  0  0  0  0  0  0  0
   -0.7260   -0.0084   -0.3606 C   0  0  0  0  0  0  0  0  0  0  0  0
    0.0966   -1.3031   -0.2227 C   0  0  0  0  0  0  0  0  0  0  0  0
    1.5474   -1.0907   -0.6676 C   0  0  0  0  0  0  0  0  0  0  0  0
   -2.2196   -0.1477   -0.0618 C   0  0  0  0  0  0  0  0  0  0  0  0
   -3.0883    0.9771   -0.5679 C   0  0  0  0  0  0  0  0  0  0  0  0
   -2.7778   -1.1889    0.5800 C   0  0  0  0  0  0  0  0  0  0  0  0
    4.1340   -0.5321    0.3338 H   0  0  0  0  0  0  0  0  0  0  0  0
    3.9681    0.2111   -1.2726 H   0  0  0  0  0  0  0  0  0  0  0  0
    4.0309    1.2266    0.1743 H   0  0  0  0  0  0  0  0  0  0  0  0
    1.8863    2.0370    0.8323 H   0  0  0  0  0  0  0  0  0  0  0  0
   -0.3672    0.9660    1.5626 H   0  0  0  0  0  0  0  0  0  0  0  0
   -0.4765    2.0746    0.1970 H   0  0  0  0  0  0  0  0  0  0  0  0
   -0.6447    0.2970   -1.4148 H   0  0  0  0  0  0  0  0  0  0  0  0
    0.0954   -1.6421    0.8220 H   0  0  0  0  0  0  0  0  0  0  0  0
   -0.3441   -2.1083   -0.8232 H   0  0  0  0  0  0  0  0  0  0  0  0
    2.1358   -1.9591   -0.3480 H   0  0  0  0  0  0  0  0  0  0  0  0
    1.5931   -1.0558   -1.7631 H   0  0  0  0  0  0  0  0  0  0  0  0
   -2.8382    1.9157   -0.0641 H   0  0  0  0  0  0  0  0  0  0  0  0
   -2.9487    1.1100   -1.6456 H   0  0  0  0  0  0  0  0  0  0  0  0
   -4.1531    0.7856   -0.3963 H   0  0  0  0  0  0  0  0  0  0  0  0
   -2.1969   -2.0226    0.9590 H   0  0  0  0  0  0  0  0  0  0  0  0
   -3.8490   -1.2372    0.7550 H   0  0  0  0  0  0  0  0  0  0  0  0
  1  2  1  0
  2  3  2  0
  3  4  1  0
  4  5  1  0
  5  6  1  0
  6  7  1  0
  5  8  1  0
  8  9  1  0
  8 10  2  3
  7  2  1  0
  1 11  1  0
  1 12  1  0
  1 13  1  0
  3 14  1  0
  4 15  1  0
  4 16  1  0
  5 17  1  0
  6 18  1  0
  6 19  1  0
  7 20  1  0
  7 21  1  0
  9 22  1  0
  9 23  1  0
  9 24  1  0
 10 25  1  0
 10 26  1  0
M  END
>  <Energy>  (1) 
23.66255117292719

>  <Real charge>  (1) 
0

>  <Mult>  (1) 
1

$$$$
mol_135 91
     RDKit          3D

 26 26  0  0  0  0  0  0  0  0999 V2000
   -3.6457    0.0153   -0.2526 C   0  0  0  0  0  0  0  0  0  0  0  0
   -2.1475   -0.0423   -0.1741 C   0  0  0  0  0  0  0  0  0  0  0  0
   -1.5074   -0.9066    0.6336 C   0  0  0  0  0  0  0  0  0  0  0  0
   -0.0098   -1.0223    0.7136 C   0  0  0  0  0  0  0  0  0  0  0  0
    0.7155   -0.3164   -0.4505 C   0  0  0  0  0  0  0  0  0  0  0  0
    0.0841    1.0602   -0.7088 C   0  0  0  0  0  0  0  0  0  0  0  0
   -1.4020    0.9273   -1.0590 C   0  0  0  0  0  0  0  0  0  0  0  0
    2.2236   -0.2430   -0.2374 C   0  0  0  0  0  0  0  0  0  0  0  0
    2.7540    0.6485    0.8539 C   0  0  0  0  0  0  0  0  0  0  0  0
    3.0652   -0.9519   -1.0102 C   0  0  0  0  0  0  0  0  0  0  0  0
   -3.9790   -0.1806   -1.2769 H   0  0  0  0  0  0  0  0  0  0  0  0
   -4.0042    1.0052    0.0474 H   0  0  0  0  0  0  0  0  0  0  0  0
   -4.1212   -0.7241    0.4002 H   0  0  0  0  0  0  0  0  0  0  0  0
   -2.0745   -1.5789    1.2736 H   0  0  0  0  0  0  0  0  0  0  0  0
    0.2628   -2.0850    0.7118 H   0  0  0  0  0  0  0  0  0  0  0  0
    0.3020   -0.6168    1.6828 H   0  0  0  0  0  0  0  0  0  0  0  0
    0.5305   -0.9191   -1.3532 H   0  0  0  0  0  0  0  0  0  0  0  0
    0.6030    1.5784   -1.5245 H   0  0  0  0  0  0  0  0  0  0  0  0
    0.1801    1.6943    0.1824 H   0  0  0  0  0  0  0  0  0  0  0  0
   -1.8619    1.9207   -0.9932 H   0  0  0  0  0  0  0  0  0  0  0  0
   -1.5021    0.5945   -2.0997 H   0  0  0  0  0  0  0  0  0  0  0  0
    3.8455    0.5925    0.9311 H   0  0  0  0  0  0  0  0  0  0  0  0
    2.3470    0.3616    1.8275 H   0  0  0  0  0  0  0  0  0  0  0  0
    2.4972    1.6941    0.6598 H   0  0  0  0  0  0  0  0  0  0  0  0
    4.1414   -0.9066   -0.8721 H   0  0  0  0  0  0  0  0  0  0  0  0
    2.7034   -1.5989   -1.8039 H   0  0  0  0  0  0  0  0  0  0  0  0
  1  2  1  0
  2  3  2  0
  3  4  1  0
  4  5  1  0
  5  6  1  0
  6  7  1  0
  5  8  1  0
  8  9  1  0
  8 10  2  3
  7  2  1  0
  1 11  1  0
  1 12  1  0
  1 13  1  0
  3 14  1  0
  4 15  1  0
  4 16  1  0
  5 17  1  0
  6 18  1  0
  6 19  1  0
  7 20  1  0
  7 21  1  0
  9 22  1  0
  9 23  1  0
  9 24  1  0
 10 25  1  0
 10 26  1  0
M  END
>  <Energy>  (2) 
23.846831660504712

>  <Real charge>  (2) 
0

>  <Mult>  (2) 
1

$$$$
mol_135 3
     RDKit          3D

 26 26  0  0  0  0  0  0  0  0999 V2000
    3.5707    0.7746    0.3884 C   0  0  0  0  0  0  0  0  0  0  0  0
    2.1028    0.5492    0.1687 C   0  0  0  0  0  0  0  0  0  0  0  0
    1.2568    1.5592   -0.0981 C   0  0  0  0  0  0  0  0  0  0  0  0
   -0.2220    1.3712   -0.2958 C   0  0  0  0  0  0  0  0  0  0  0  0
   -0.7413    0.0184    0.2454 C   0  0  0  0  0  0  0  0  0  0  0  0
    0.1980   -1.1028   -0.2313 C   0  0  0  0  0  0  0  0  0  0  0  0
    1.6316   -0.8806    0.2657 C   0  0  0  0  0  0  0  0  0  0  0  0
   -2.2028   -0.3037   -0.0703 C   0  0  0  0  0  0  0  0  0  0  0  0
   -2.8424   -1.3384    0.8237 C   0  0  0  0  0  0  0  0  0  0  0  0
   -2.9313    0.2813   -1.0370 C   0  0  0  0  0  0  0  0  0  0  0  0
    3.8399    1.8337    0.3177 H   0  0  0  0  0  0  0  0  0  0  0  0
    4.1551    0.2309   -0.3609 H   0  0  0  0  0  0  0  0  0  0  0  0
    3.8636    0.4215    1.3824 H   0  0  0  0  0  0  0  0  0  0  0  0
    1.6287    2.5776   -0.1842 H   0  0  0  0  0  0  0  0  0  0  0  0
   -0.7538    2.1867    0.2095 H   0  0  0  0  0  0  0  0  0  0  0  0
   -0.4143    1.4731   -1.3701 H   0  0  0  0  0  0  0  0  0  0  0  0
   -0.6674    0.0763    1.3422 H   0  0  0  0  0  0  0  0  0  0  0  0
    0.1955   -1.1432   -1.3291 H   0  0  0  0  0  0  0  0  0  0  0  0
   -0.1406   -2.0854    0.1165 H   0  0  0  0  0  0  0  0  0  0  0  0
    2.3010   -1.5324   -0.3085 H   0  0  0  0  0  0  0  0  0  0  0  0
    1.7001   -1.1945    1.3149 H   0  0  0  0  0  0  0  0  0  0  0  0
   -3.9069   -1.4735    0.6031 H   0  0  0  0  0  0  0  0  0  0  0  0
   -2.7619   -1.0359    1.8729 H   0  0  0  0  0  0  0  0  0  0  0  0
   -2.3572   -2.3112    0.7023 H   0  0  0  0  0  0  0  0  0  0  0  0
   -2.5301    1.0346   -1.7050 H   0  0  0  0  0  0  0  0  0  0  0  0
   -3.9719    0.0133   -1.1993 H   0  0  0  0  0  0  0  0  0  0  0  0
  1  2  1  0
  2  3  2  0
  3  4  1  0
  4  5  1  0
  5  6  1  0
  6  7  1  0
  5  8  1  0
  8  9  1  0
  8 10  2  3
  7  2  1  0
  1 11  1  0
  1 12  1  0
  1 13  1  0
  3 14  1  0
  4 15  1  0
  4 16  1  0
  5 17  1  0
  6 18  1  0
  6 19  1  0
  7 20  1  0
  7 21  1  0
  9 22  1  0
  9 23  1  0
  9 24  1  0
 10 25  1  0
 10 26  1  0
M  END
>  <Energy>  (3) 
24.606398495951623

>  <Real charge>  (3) 
0

>  <Mult>  (3) 
1

$$$$
