mol_471 264
     RDKit          3D

 18 17  0  0  0  0  0  0  0  0999 V2000
    1.4612    1.3134   -0.2476 C   0  0  0  0  0  0  0  0  0  0  0  0
    0.5465    0.2702    0.4043 C   0  0  0  0  0  0  0  0  0  0  0  0
    1.1979   -1.1114    0.2905 C   0  0  0  0  0  0  0  0  0  0  0  0
   -0.8664    0.3283   -0.2138 C   0  0  0  0  0  0  0  0  0  0  0  0
   -1.8635   -0.5919    0.4815 C   0  0  0  0  0  0  0  0  0  0  0  0
   -0.8086   -0.0151   -1.5963 O   0  0  0  0  0  0  0  0  0  0  0  0
    1.0314    2.3167   -0.1589 H   0  0  0  0  0  0  0  0  0  0  0  0
    2.4412    1.3283    0.2416 H   0  0  0  0  0  0  0  0  0  0  0  0
    1.6199    1.1038   -1.3107 H   0  0  0  0  0  0  0  0  0  0  0  0
    0.4657    0.5200    1.4701 H   0  0  0  0  0  0  0  0  0  0  0  0
    1.2896   -1.4303   -0.7530 H   0  0  0  0  0  0  0  0  0  0  0  0
    2.2033   -1.1002    0.7257 H   0  0  0  0  0  0  0  0  0  0  0  0
    0.6213   -1.8686    0.8300 H   0  0  0  0  0  0  0  0  0  0  0  0
   -1.2390    1.3577   -0.1477 H   0  0  0  0  0  0  0  0  0  0  0  0
   -1.6274   -1.6468    0.3085 H   0  0  0  0  0  0  0  0  0  0  0  0
   -1.8966   -0.4037    1.5587 H   0  0  0  0  0  0  0  0  0  0  0  0
   -2.8683   -0.4342    0.0739 H   0  0  0  0  0  0  0  0  0  0  0  0
   -1.7082    0.0638   -1.9568 H   0  0  0  0  0  0  0  0  0  0  0  0
  1  2  1  0
  2  3  1  0
  2  4  1  0
  4  5  1  0
  4  6  1  0
  1  7  1  0
  1  8  1  0
  1  9  1  0
  2 10  1  0
  3 11  1  0
  3 12  1  0
  3 13  1  0
  4 14  1  0
  5 15  1  0
  5 16  1  0
  5 17  1  0
  6 18  1  0
M  END
>  <Energy>  (1) 
6.474464908502698

>  <Real charge>  (1) 
0

>  <Mult>  (1) 
1

$$$$
mol_471 175
     RDKit          3D

 18 17  0  0  0  0  0  0  0  0999 V2000
    1.1200   -1.3088   -0.1525 C   0  0  0  0  0  0  0  0  0  0  0  0
    0.6402    0.0938    0.2253 C   0  0  0  0  0  0  0  0  0  0  0  0
    1.5299    1.1387   -0.4607 C   0  0  0  0  0  0  0  0  0  0  0  0
   -0.8453    0.3245   -0.1240 C   0  0  0  0  0  0  0  0  0  0  0  0
   -1.7896   -0.6638    0.5521 C   0  0  0  0  0  0  0  0  0  0  0  0
   -1.2135    1.6398    0.2957 O   0  0  0  0  0  0  0  0  0  0  0  0
    0.9454   -1.5146   -1.2139 H   0  0  0  0  0  0  0  0  0  0  0  0
    0.6083   -2.0771    0.4348 H   0  0  0  0  0  0  0  0  0  0  0  0
    2.1927   -1.4186    0.0406 H   0  0  0  0  0  0  0  0  0  0  0  0
    0.7712    0.2254    1.3076 H   0  0  0  0  0  0  0  0  0  0  0  0
    1.4336    1.0854   -1.5505 H   0  0  0  0  0  0  0  0  0  0  0  0
    2.5833    0.9792   -0.2062 H   0  0  0  0  0  0  0  0  0  0  0  0
    1.2682    2.1538   -0.1454 H   0  0  0  0  0  0  0  0  0  0  0  0
   -0.9843    0.2749   -1.2105 H   0  0  0  0  0  0  0  0  0  0  0  0
   -1.6558   -0.6497    1.6393 H   0  0  0  0  0  0  0  0  0  0  0  0
   -1.6390   -1.6848    0.1909 H   0  0  0  0  0  0  0  0  0  0  0  0
   -2.8330   -0.3894    0.3613 H   0  0  0  0  0  0  0  0  0  0  0  0
   -2.1325    1.7912    0.0162 H   0  0  0  0  0  0  0  0  0  0  0  0
  1  2  1  0
  2  3  1  0
  2  4  1  0
  4  5  1  0
  4  6  1  0
  1  7  1  0
  1  8  1  0
  1  9  1  0
  2 10  1  0
  3 11  1  0
  3 12  1  0
  3 13  1  0
  4 14  1  0
  5 15  1  0
  5 16  1  0
  5 17  1  0
  6 18  1  0
M  END
>  <Energy>  (2) 
6.58134972102687

>  <Real charge>  (2) 
0

>  <Mult>  (2) 
1

$$$$
mol_471 304
     RDKit          3D

 18 17  0  0  0  0  0  0  0  0999 V2000
   -0.8222    1.2015    0.8760 C   0  0  0  0  0  0  0  0  0  0  0  0
   -0.5708    0.1324   -0.1888 C   0  0  0  0  0  0  0  0  0  0  0  0
   -1.7147   -0.8892   -0.1680 C   0  0  0  0  0  0  0  0  0  0  0  0
    0.7929   -0.5686   -0.0093 C   0  0  0  0  0  0  0  0  0  0  0  0
    1.9837    0.3826   -0.0558 C   0  0  0  0  0  0  0  0  0  0  0  0
    0.9719   -1.5393   -1.0426 O   0  0  0  0  0  0  0  0  0  0  0  0
   -0.1057    2.0241    0.7919 H   0  0  0  0  0  0  0  0  0  0  0  0
   -1.8226    1.6339    0.7649 H   0  0  0  0  0  0  0  0  0  0  0  0
   -0.7461    0.7816    1.8847 H   0  0  0  0  0  0  0  0  0  0  0  0
   -0.5921    0.6148   -1.1749 H   0  0  0  0  0  0  0  0  0  0  0  0
   -2.6817   -0.3925   -0.3024 H   0  0  0  0  0  0  0  0  0  0  0  0
   -1.7427   -1.4320    0.7830 H   0  0  0  0  0  0  0  0  0  0  0  0
   -1.6089   -1.6216   -0.9748 H   0  0  0  0  0  0  0  0  0  0  0  0
    0.8105   -1.1112    0.9428 H   0  0  0  0  0  0  0  0  0  0  0  0
    2.9226   -0.1821   -0.0460 H   0  0  0  0  0  0  0  0  0  0  0  0
    1.9801    0.9695   -0.9808 H   0  0  0  0  0  0  0  0  0  0  0  0
    1.9914    1.0684    0.7957 H   0  0  0  0  0  0  0  0  0  0  0  0
    0.9543   -1.0721   -1.8954 H   0  0  0  0  0  0  0  0  0  0  0  0
  1  2  1  0
  2  3  1  0
  2  4  1  0
  4  5  1  0
  4  6  1  0
  1  7  1  0
  1  8  1  0
  1  9  1  0
  2 10  1  0
  3 11  1  0
  3 12  1  0
  3 13  1  0
  4 14  1  0
  5 15  1  0
  5 16  1  0
  5 17  1  0
  6 18  1  0
M  END
>  <Energy>  (3) 
6.5938966996218715

>  <Real charge>  (3) 
0

>  <Mult>  (3) 
1

$$$$
mol_471 220
     RDKit          3D

 18 17  0  0  0  0  0  0  0  0999 V2000
   -0.5148   -0.5361   -1.4924 C   0  0  0  0  0  0  0  0  0  0  0  0
   -0.5999    0.3862   -0.2726 C   0  0  0  0  0  0  0  0  0  0  0  0
   -1.6148   -0.1600    0.7322 C   0  0  0  0  0  0  0  0  0  0  0  0
    0.7725    0.6564    0.3806 C   0  0  0  0  0  0  0  0  0  0  0  0
    1.5005   -0.5820    0.8887 C   0  0  0  0  0  0  0  0  0  0  0  0
    1.6324    1.3025   -0.5593 O   0  0  0  0  0  0  0  0  0  0  0  0
    0.1964   -0.1531   -2.2311 H   0  0  0  0  0  0  0  0  0  0  0  0
   -1.4913   -0.6111   -1.9834 H   0  0  0  0  0  0  0  0  0  0  0  0
   -0.2079   -1.5492   -1.2138 H   0  0  0  0  0  0  0  0  0  0  0  0
   -0.9810    1.3496   -0.6379 H   0  0  0  0  0  0  0  0  0  0  0  0
   -2.6106   -0.2173    0.2793 H   0  0  0  0  0  0  0  0  0  0  0  0
   -1.6857    0.4924    1.6087 H   0  0  0  0  0  0  0  0  0  0  0  0
   -1.3491   -1.1655    1.0736 H   0  0  0  0  0  0  0  0  0  0  0  0
    0.6413    1.3492    1.2204 H   0  0  0  0  0  0  0  0  0  0  0  0
    1.7474   -1.2673    0.0714 H   0  0  0  0  0  0  0  0  0  0  0  0
    0.9177   -1.1200    1.6409 H   0  0  0  0  0  0  0  0  0  0  0  0
    2.4560   -0.2943    1.3421 H   0  0  0  0  0  0  0  0  0  0  0  0
    1.1908    2.1196   -0.8473 H   0  0  0  0  0  0  0  0  0  0  0  0
  1  2  1  0
  2  3  1  0
  2  4  1  0
  4  5  1  0
  4  6  1  0
  1  7  1  0
  1  8  1  0
  1  9  1  0
  2 10  1  0
  3 11  1  0
  3 12  1  0
  3 13  1  0
  4 14  1  0
  5 15  1  0
  5 16  1  0
  5 17  1  0
  6 18  1  0
M  END
>  <Energy>  (4) 
6.737760538731803

>  <Real charge>  (4) 
0

>  <Mult>  (4) 
1

$$$$
mol_471 127
     RDKit          3D

 18 17  0  0  0  0  0  0  0  0999 V2000
    0.4126    1.5751    0.0890 C   0  0  0  0  0  0  0  0  0  0  0  0
    0.4622    0.1432   -0.4522 C   0  0  0  0  0  0  0  0  0  0  0  0
    1.8461   -0.4532   -0.1716 C   0  0  0  0  0  0  0  0  0  0  0  0
   -0.6552   -0.7591    0.1157 C   0  0  0  0  0  0  0  0  0  0  0  0
   -2.0504   -0.3095   -0.3025 C   0  0  0  0  0  0  0  0  0  0  0  0
   -0.6218   -0.7901    1.5401 O   0  0  0  0  0  0  0  0  0  0  0  0
    0.5127    1.5982    1.1792 H   0  0  0  0  0  0  0  0  0  0  0  0
    1.2263    2.1749   -0.3335 H   0  0  0  0  0  0  0  0  0  0  0  0
   -0.5257    2.0698   -0.1788 H   0  0  0  0  0  0  0  0  0  0  0  0
    0.3419    0.1884   -1.5425 H   0  0  0  0  0  0  0  0  0  0  0  0
    1.9106   -1.4804   -0.5453 H   0  0  0  0  0  0  0  0  0  0  0  0
    2.6255    0.1311   -0.6728 H   0  0  0  0  0  0  0  0  0  0  0  0
    2.0755   -0.4635    0.8989 H   0  0  0  0  0  0  0  0  0  0  0  0
   -0.5109   -1.7863   -0.2405 H   0  0  0  0  0  0  0  0  0  0  0  0
   -2.7976   -1.0295    0.0498 H   0  0  0  0  0  0  0  0  0  0  0  0
   -2.3182    0.6513    0.1487 H   0  0  0  0  0  0  0  0  0  0  0  0
   -2.1353   -0.2296   -1.3903 H   0  0  0  0  0  0  0  0  0  0  0  0
    0.2016   -1.2307    1.8087 H   0  0  0  0  0  0  0  0  0  0  0  0
  1  2  1  0
  2  3  1  0
  2  4  1  0
  4  5  1  0
  4  6  1  0
  1  7  1  0
  1  8  1  0
  1  9  1  0
  2 10  1  0
  3 11  1  0
  3 12  1  0
  3 13  1  0
  4 14  1  0
  5 15  1  0
  5 16  1  0
  5 17  1  0
  6 18  1  0
M  END
>  <Energy>  (5) 
6.752112047856527

>  <Real charge>  (5) 
0

>  <Mult>  (5) 
1

$$$$
mol_471 343
     RDKit          3D

 18 17  0  0  0  0  0  0  0  0999 V2000
    1.5953    1.0201   -0.0515 C   0  0  0  0  0  0  0  0  0  0  0  0
    0.4675    0.0851    0.4034 C   0  0  0  0  0  0  0  0  0  0  0  0
    0.9568   -1.3637    0.3375 C   0  0  0  0  0  0  0  0  0  0  0  0
   -0.8166    0.3084   -0.4256 C   0  0  0  0  0  0  0  0  0  0  0  0
   -1.9779   -0.5794    0.0079 C   0  0  0  0  0  0  0  0  0  0  0  0
   -1.2597    1.6586   -0.2801 O   0  0  0  0  0  0  0  0  0  0  0  0
    1.8234    0.8771   -1.1132 H   0  0  0  0  0  0  0  0  0  0  0  0
    1.3298    2.0705    0.1032 H   0  0  0  0  0  0  0  0  0  0  0  0
    2.5110    0.8320    0.5195 H   0  0  0  0  0  0  0  0  0  0  0  0
    0.2549    0.3309    1.4522 H   0  0  0  0  0  0  0  0  0  0  0  0
    1.1177   -1.6804   -0.6985 H   0  0  0  0  0  0  0  0  0  0  0  0
    1.9030   -1.4807    0.8771 H   0  0  0  0  0  0  0  0  0  0  0  0
    0.2393   -2.0489    0.7987 H   0  0  0  0  0  0  0  0  0  0  0  0
   -0.6203    0.1360   -1.4906 H   0  0  0  0  0  0  0  0  0  0  0  0
   -1.7829   -1.6359   -0.1951 H   0  0  0  0  0  0  0  0  0  0  0  0
   -2.1860   -0.4573    1.0766 H   0  0  0  0  0  0  0  0  0  0  0  0
   -2.8933   -0.2962   -0.5238 H   0  0  0  0  0  0  0  0  0  0  0  0
   -0.6618    2.2237   -0.7975 H   0  0  0  0  0  0  0  0  0  0  0  0
  1  2  1  0
  2  3  1  0
  2  4  1  0
  4  5  1  0
  4  6  1  0
  1  7  1  0
  1  8  1  0
  1  9  1  0
  2 10  1  0
  3 11  1  0
  3 12  1  0
  3 13  1  0
  4 14  1  0
  5 15  1  0
  5 16  1  0
  5 17  1  0
  6 18  1  0
M  END
>  <Energy>  (6) 
7.036625499434883

>  <Real charge>  (6) 
0

>  <Mult>  (6) 
1

$$$$
mol_471 223
     RDKit          3D

 18 17  0  0  0  0  0  0  0  0999 V2000
   -1.1404   -1.1785    0.0622 C   0  0  0  0  0  0  0  0  0  0  0  0
   -0.6312    0.1465   -0.5130 C   0  0  0  0  0  0  0  0  0  0  0  0
   -1.2237    1.3177    0.2730 C   0  0  0  0  0  0  0  0  0  0  0  0
    0.9080    0.2344   -0.5961 C   0  0  0  0  0  0  0  0  0  0  0  0
    1.6445    0.0676    0.7286 C   0  0  0  0  0  0  0  0  0  0  0  0
    1.3951   -0.7426   -1.5172 O   0  0  0  0  0  0  0  0  0  0  0  0
   -0.8422   -1.3081    1.1074 H   0  0  0  0  0  0  0  0  0  0  0  0
   -2.2349   -1.2150    0.0256 H   0  0  0  0  0  0  0  0  0  0  0  0
   -0.7672   -2.0329   -0.5104 H   0  0  0  0  0  0  0  0  0  0  0  0
   -1.0145    0.2072   -1.5409 H   0  0  0  0  0  0  0  0  0  0  0  0
   -0.8765    2.2743   -0.1311 H   0  0  0  0  0  0  0  0  0  0  0  0
   -2.3173    1.3086    0.2102 H   0  0  0  0  0  0  0  0  0  0  0  0
   -0.9527    1.2747    1.3326 H   0  0  0  0  0  0  0  0  0  0  0  0
    1.1781    1.2095   -1.0183 H   0  0  0  0  0  0  0  0  0  0  0  0
    1.4820   -0.9262    1.1580 H   0  0  0  0  0  0  0  0  0  0  0  0
    1.3454    0.8230    1.4599 H   0  0  0  0  0  0  0  0  0  0  0  0
    2.7250    0.1569    0.5690 H   0  0  0  0  0  0  0  0  0  0  0  0
    1.3224   -1.6171   -1.0994 H   0  0  0  0  0  0  0  0  0  0  0  0
  1  2  1  0
  2  3  1  0
  2  4  1  0
  4  5  1  0
  4  6  1  0
  1  7  1  0
  1  8  1  0
  1  9  1  0
  2 10  1  0
  3 11  1  0
  3 12  1  0
  3 13  1  0
  4 14  1  0
  5 15  1  0
  5 16  1  0
  5 17  1  0
  6 18  1  0
M  END
>  <Energy>  (7) 
7.247096045574497

>  <Real charge>  (7) 
0

>  <Mult>  (7) 
1

$$$$
