mol_322 12
     RDKit          3D

 32 36  0  0  0  0  0  0  0  0999 V2000
    4.6068   -0.8278   -0.0345 C   0  0  0  0  0  0  0  0  0  0  0  0
    3.9735   -2.0851   -0.0720 C   0  0  0  0  0  0  0  0  0  0  0  0
    2.5789   -2.1905   -0.0726 C   0  0  0  0  0  0  0  0  0  0  0  0
    1.8434   -1.0205   -0.0351 C   0  0  0  0  0  0  0  0  0  0  0  0
    2.4826    0.2480    0.0028 C   0  0  0  0  0  0  0  0  0  0  0  0
    3.8609    0.3545    0.0034 C   0  0  0  0  0  0  0  0  0  0  0  0
    1.4293    1.2534    0.0359 C   0  0  0  0  0  0  0  0  0  0  0  0
    1.4622    2.6339    0.0784 C   0  0  0  0  0  0  0  0  0  0  0  0
    0.2429    3.3244    0.1020 C   0  0  0  0  0  0  0  0  0  0  0  0
   -0.9901    2.6346    0.0831 C   0  0  0  0  0  0  0  0  0  0  0  0
   -1.0466    1.2162    0.0395 C   0  0  0  0  0  0  0  0  0  0  0  0
    0.2031    0.5956    0.0180 C   0  0  0  0  0  0  0  0  0  0  0  0
    0.4078   -0.7737   -0.0247 C   0  0  0  0  0  0  0  0  0  0  0  0
   -0.6822   -1.6217   -0.0487 C   0  0  0  0  0  0  0  0  0  0  0  0
   -1.9829   -1.0757   -0.0293 C   0  0  0  0  0  0  0  0  0  0  0  0
   -3.0929   -1.9339   -0.0536 C   0  0  0  0  0  0  0  0  0  0  0  0
   -4.3931   -1.4305   -0.0356 C   0  0  0  0  0  0  0  0  0  0  0  0
   -4.6041   -0.0584    0.0072 C   0  0  0  0  0  0  0  0  0  0  0  0
   -3.5153    0.8162    0.0320 C   0  0  0  0  0  0  0  0  0  0  0  0
   -2.1859    0.3430    0.0148 C   0  0  0  0  0  0  0  0  0  0  0  0
    5.6935   -0.7773   -0.0350 H   0  0  0  0  0  0  0  0  0  0  0  0
    4.5801   -2.9876   -0.1010 H   0  0  0  0  0  0  0  0  0  0  0  0
    2.0976   -3.1613   -0.1015 H   0  0  0  0  0  0  0  0  0  0  0  0
    4.3541    1.3195    0.0322 H   0  0  0  0  0  0  0  0  0  0  0  0
    2.4018    3.1753    0.0932 H   0  0  0  0  0  0  0  0  0  0  0  0
    0.2438    4.4119    0.1355 H   0  0  0  0  0  0  0  0  0  0  0  0
   -1.9055    3.2196    0.1030 H   0  0  0  0  0  0  0  0  0  0  0  0
   -0.5313   -2.6964   -0.0821 H   0  0  0  0  0  0  0  0  0  0  0  0
   -2.9538   -3.0127   -0.0871 H   0  0  0  0  0  0  0  0  0  0  0  0
   -5.2397   -2.1118   -0.0549 H   0  0  0  0  0  0  0  0  0  0  0  0
   -5.6168    0.3363    0.0213 H   0  0  0  0  0  0  0  0  0  0  0  0
   -3.7224    1.8824    0.0653 H   0  0  0  0  0  0  0  0  0  0  0  0
  1  2  2  0
  2  3  1  0
  3  4  2  0
  4  5  1  0
  5  6  2  0
  5  7  1  0
  7  8  2  0
  8  9  1  0
  9 10  2  0
 10 11  1  0
 11 12  1  0
 12 13  2  0
 13 14  1  0
 14 15  2  0
 15 16  1  0
 16 17  2  0
 17 18  1  0
 18 19  2  0
 19 20  1  0
  6  1  1  0
 13  4  1  0
 12  7  1  0
 20 11  2  0
 20 15  1  0
  1 21  1  0
  2 22  1  0
  3 23  1  0
  6 24  1  0
  8 25  1  0
  9 26  1  0
 10 27  1  0
 14 28  1  0
 16 29  1  0
 17 30  1  0
 18 31  1  0
 19 32  1  0
M  END
>  <Energy>  (1) 
95.16772104730934

>  <Real charge>  (1) 
0

>  <Mult>  (1) 
1

$$$$
