mol_494 22
     RDKit          3D

 35 37  0  0  0  0  0  0  0  0999 V2000
   -3.0166   -2.2107    0.9385 C   0  0  0  0  0  0  0  0  0  0  0  0
   -2.0416   -1.6625    0.0042 N   0  0  0  0  0  0  0  0  0  0  0  0
   -1.5813   -2.5286   -0.9964 C   0  0  0  0  0  0  0  0  0  0  0  0
   -1.9139   -3.7166   -1.0432 O   0  0  0  0  0  0  0  0  0  0  0  0
   -0.7128   -1.9273   -2.0926 C   0  0  0  0  0  0  0  0  0  0  0  0
    0.5917   -1.5823   -1.5383 N   0  0  0  0  0  0  0  0  0  0  0  0
    0.6598   -0.5883   -0.7194 C   0  0  0  0  0  0  0  0  0  0  0  0
    1.9960   -0.2895   -0.1127 C   0  0  0  0  0  0  0  0  0  0  0  0
    3.1489   -0.4739   -0.8849 C   0  0  0  0  0  0  0  0  0  0  0  0
    4.4053   -0.1992   -0.3431 C   0  0  0  0  0  0  0  0  0  0  0  0
    4.5143    0.2491    0.9729 C   0  0  0  0  0  0  0  0  0  0  0  0
    3.3698    0.4147    1.7529 C   0  0  0  0  0  0  0  0  0  0  0  0
    2.1103    0.1412    1.2154 C   0  0  0  0  0  0  0  0  0  0  0  0
   -0.5027    0.2743   -0.3547 C   0  0  0  0  0  0  0  0  0  0  0  0
   -0.2921    1.6672   -0.3689 C   0  0  0  0  0  0  0  0  0  0  0  0
   -1.3012    2.5293    0.0678 C   0  0  0  0  0  0  0  0  0  0  0  0
   -2.5174    2.0152    0.5188 C   0  0  0  0  0  0  0  0  0  0  0  0
   -2.7289    0.6316    0.5070 C   0  0  0  0  0  0  0  0  0  0  0  0
   -1.7433   -0.2643    0.0459 C   0  0  0  0  0  0  0  0  0  0  0  0
   -1.0777    3.9806    0.0637 N   0  0  0  0  0  4  0  0  0  0  0  0
    0.0199    4.3916   -0.3356 O   0  0  0  0  0  1  0  0  0  0  0  0
   -2.0001    4.7047    0.4627 O   0  0  0  0  0  0  0  0  0  0  0  0
   -2.9332   -1.7196    1.9132 H   0  0  0  0  0  0  0  0  0  0  0  0
   -2.8486   -3.2808    1.0963 H   0  0  0  0  0  0  0  0  0  0  0  0
   -4.0214   -2.0776    0.5254 H   0  0  0  0  0  0  0  0  0  0  0  0
   -0.5697   -2.6884   -2.8678 H   0  0  0  0  0  0  0  0  0  0  0  0
   -1.2141   -1.0828   -2.5788 H   0  0  0  0  0  0  0  0  0  0  0  0
    3.0718   -0.8326   -1.9090 H   0  0  0  0  0  0  0  0  0  0  0  0
    5.2985   -0.3414   -0.9463 H   0  0  0  0  0  0  0  0  0  0  0  0
    5.4946    0.4585    1.3946 H   0  0  0  0  0  0  0  0  0  0  0  0
    3.4615    0.7479    2.7839 H   0  0  0  0  0  0  0  0  0  0  0  0
    1.2352    0.2486    1.8495 H   0  0  0  0  0  0  0  0  0  0  0  0
    0.6609    2.0674   -0.7138 H   0  0  0  0  0  0  0  0  0  0  0  0
   -3.3157    2.6694    0.8662 H   0  0  0  0  0  0  0  0  0  0  0  0
   -3.7063    0.2753    0.8266 H   0  0  0  0  0  0  0  0  0  0  0  0
  1  2  1  0
  2  3  1  0
  3  4  2  0
  3  5  1  0
  5  6  1  0
  6  7  2  0
  7  8  1  0
  8  9  2  0
  9 10  1  0
 10 11  2  0
 11 12  1  0
 12 13  2  0
  7 14  1  0
 14 15  2  0
 15 16  1  0
 16 17  2  0
 17 18  1  0
 18 19  2  0
 16 20  1  0
 20 21  1  0
 20 22  2  0
 13  8  1  0
 19  2  1  0
 19 14  1  0
  1 23  1  0
  1 24  1  0
  1 25  1  0
  5 26  1  0
  5 27  1  0
  9 28  1  0
 10 29  1  0
 11 30  1  0
 12 31  1  0
 13 32  1  0
 15 33  1  0
 17 34  1  0
 18 35  1  0
M  CHG  2  20   1  21  -1
M  END
>  <Energy>  (1) 
144.64336032760002

>  <Real charge>  (1) 
0

>  <Mult>  (1) 
1

$$$$
