mol_1028 99
     RDKit          3D

 32 33  0  0  0  0  0  0  0  0999 V2000
   -2.6785   -1.7824   -1.8524 C   0  0  0  0  0  0  0  0  0  0  0  0
   -2.1130   -0.7873   -0.9622 N   0  0  0  0  0  0  0  0  0  0  0  0
   -2.8053    0.4375   -0.8692 C   0  0  0  0  0  0  0  0  0  0  0  0
   -3.8360    0.6348   -1.5194 O   0  0  0  0  0  0  0  0  0  0  0  0
   -2.2696    1.4078   -0.0232 N   0  0  0  0  0  0  0  0  0  0  0  0
   -2.9269    2.6922    0.1392 C   0  0  0  0  0  0  0  0  0  0  0  0
   -1.0996    1.1449    0.6477 C   0  0  0  0  0  0  0  0  0  0  0  0
   -0.4599    1.9919    1.4984 N   0  0  0  0  0  0  0  0  0  0  0  0
    0.6058    1.3221    1.8882 C   0  0  0  0  0  0  0  0  0  0  0  0
    0.6591    0.0739    1.3179 N   0  0  0  0  0  0  0  0  0  0  0  0
    1.6635   -0.9315    1.6079 C   0  0  0  0  0  0  0  0  0  0  0  0
    2.9727   -0.7656    0.8350 C   0  0  0  0  0  0  0  0  0  0  0  0
    3.6413    0.4339    1.2530 O   0  0  0  0  0  0  0  0  0  0  0  0
    2.8133   -0.7444   -0.6869 C   0  0  0  0  0  0  0  0  0  0  0  0
    4.1153   -0.5904   -1.2617 O   0  0  0  0  0  0  0  0  0  0  0  0
   -0.4359   -0.0371    0.5055 C   0  0  0  0  0  0  0  0  0  0  0  0
   -0.8903   -1.0772   -0.3511 C   0  0  0  0  0  0  0  0  0  0  0  0
   -0.2470   -2.1046   -0.5459 O   0  0  0  0  0  0  0  0  0  0  0  0
   -3.7552   -1.8711   -1.6755 H   0  0  0  0  0  0  0  0  0  0  0  0
   -2.2195   -2.7652   -1.7166 H   0  0  0  0  0  0  0  0  0  0  0  0
   -2.5204   -1.4536   -2.8847 H   0  0  0  0  0  0  0  0  0  0  0  0
   -3.8608    2.7464   -0.4263 H   0  0  0  0  0  0  0  0  0  0  0  0
   -2.2571    3.4822   -0.2148 H   0  0  0  0  0  0  0  0  0  0  0  0
   -3.1518    2.8488    1.1990 H   0  0  0  0  0  0  0  0  0  0  0  0
    1.3658    1.6821    2.5718 H   0  0  0  0  0  0  0  0  0  0  0  0
    1.8596   -0.8620    2.6854 H   0  0  0  0  0  0  0  0  0  0  0  0
    1.2267   -1.9177    1.4261 H   0  0  0  0  0  0  0  0  0  0  0  0
    3.6455   -1.5873    1.1087 H   0  0  0  0  0  0  0  0  0  0  0  0
    4.3707    0.5492    0.6084 H   0  0  0  0  0  0  0  0  0  0  0  0
    2.3760   -1.6762   -1.0551 H   0  0  0  0  0  0  0  0  0  0  0  0
    2.2148    0.1090   -1.0185 H   0  0  0  0  0  0  0  0  0  0  0  0
    3.9968   -0.6032   -2.2288 H   0  0  0  0  0  0  0  0  0  0  0  0
  1  2  1  0
  2  3  1  0
  3  4  2  0
  3  5  1  0
  5  6  1  0
  5  7  1  0
  7  8  1  0
  8  9  2  0
  9 10  1  0
 10 11  1  0
 11 12  1  0
 12 13  1  0
 12 14  1  0
 14 15  1  0
 10 16  1  0
 16 17  1  0
 17 18  2  0
 16  7  2  0
 17  2  1  0
  1 19  1  0
  1 20  1  0
  1 21  1  0
  6 22  1  0
  6 23  1  0
  6 24  1  0
  9 25  1  0
 11 26  1  0
 11 27  1  0
 12 28  1  0
 13 29  1  0
 14 30  1  0
 14 31  1  0
 15 32  1  0
M  END
>  <Energy>  (1) 
-101.26442215958009

>  <Real charge>  (1) 
0

>  <Mult>  (1) 
1

$$$$
mol_1028 85
     RDKit          3D

 32 33  0  0  0  0  0  0  0  0999 V2000
    2.3007   -0.3851    2.6727 C   0  0  0  0  0  0  0  0  0  0  0  0
    1.8974   -0.1082    1.3073 N   0  0  0  0  0  0  0  0  0  0  0  0
    2.8013    0.6417    0.5264 C   0  0  0  0  0  0  0  0  0  0  0  0
    3.8746    1.0306    0.9955 O   0  0  0  0  0  0  0  0  0  0  0  0
    2.4225    0.9270   -0.7854 N   0  0  0  0  0  0  0  0  0  0  0  0
    3.3026    1.6804   -1.6609 C   0  0  0  0  0  0  0  0  0  0  0  0
    1.2015    0.4949   -1.2434 C   0  0  0  0  0  0  0  0  0  0  0  0
    0.6999    0.6945   -2.4923 N   0  0  0  0  0  0  0  0  0  0  0  0
   -0.4774    0.1048   -2.4726 C   0  0  0  0  0  0  0  0  0  0  0  0
   -0.7478   -0.4478   -1.2452 N   0  0  0  0  0  0  0  0  0  0  0  0
   -1.9363   -1.2081   -0.9250 C   0  0  0  0  0  0  0  0  0  0  0  0
   -3.1269   -0.3468   -0.4922 C   0  0  0  0  0  0  0  0  0  0  0  0
   -4.2953   -1.1828   -0.4805 O   0  0  0  0  0  0  0  0  0  0  0  0
   -2.9751    0.2806    0.8977 C   0  0  0  0  0  0  0  0  0  0  0  0
   -2.8933   -0.7520    1.8804 O   0  0  0  0  0  0  0  0  0  0  0  0
    0.3352   -0.1952   -0.4490 C   0  0  0  0  0  0  0  0  0  0  0  0
    0.6207   -0.5092    0.9086 C   0  0  0  0  0  0  0  0  0  0  0  0
   -0.2002   -1.0460    1.6489 O   0  0  0  0  0  0  0  0  0  0  0  0
    1.6608   -1.1341    3.1467 H   0  0  0  0  0  0  0  0  0  0  0  0
    2.2462    0.5461    3.2458 H   0  0  0  0  0  0  0  0  0  0  0  0
    3.3343   -0.7455    2.6896 H   0  0  0  0  0  0  0  0  0  0  0  0
    2.8009    2.6064   -1.9593 H   0  0  0  0  0  0  0  0  0  0  0  0
    3.5240    1.0801   -2.5491 H   0  0  0  0  0  0  0  0  0  0  0  0
    4.2451    1.9363   -1.1699 H   0  0  0  0  0  0  0  0  0  0  0  0
   -1.1655    0.0451   -3.3075 H   0  0  0  0  0  0  0  0  0  0  0  0
   -1.6854   -1.9678   -0.1776 H   0  0  0  0  0  0  0  0  0  0  0  0
   -2.2038   -1.7746   -1.8270 H   0  0  0  0  0  0  0  0  0  0  0  0
   -3.3041    0.4450   -1.2284 H   0  0  0  0  0  0  0  0  0  0  0  0
   -4.3420   -1.5629    0.4223 H   0  0  0  0  0  0  0  0  0  0  0  0
   -3.8692    0.8660    1.1359 H   0  0  0  0  0  0  0  0  0  0  0  0
   -2.1058    0.9397    0.9745 H   0  0  0  0  0  0  0  0  0  0  0  0
   -1.9395   -0.9531    2.0128 H   0  0  0  0  0  0  0  0  0  0  0  0
  1  2  1  0
  2  3  1  0
  3  4  2  0
  3  5  1  0
  5  6  1  0
  5  7  1  0
  7  8  1  0
  8  9  2  0
  9 10  1  0
 10 11  1  0
 11 12  1  0
 12 13  1  0
 12 14  1  0
 14 15  1  0
 10 16  1  0
 16 17  1  0
 17 18  2  0
 16  7  2  0
 17  2  1  0
  1 19  1  0
  1 20  1  0
  1 21  1  0
  6 22  1  0
  6 23  1  0
  6 24  1  0
  9 25  1  0
 11 26  1  0
 11 27  1  0
 12 28  1  0
 13 29  1  0
 14 30  1  0
 14 31  1  0
 15 32  1  0
M  END
>  <Energy>  (2) 
-100.90288836050131

>  <Real charge>  (2) 
0

>  <Mult>  (2) 
1

$$$$
mol_1028 325
     RDKit          3D

 32 33  0  0  0  0  0  0  0  0999 V2000
   -2.7880    2.3902    0.0144 C   0  0  0  0  0  0  0  0  0  0  0  0
   -2.2469    1.0469    0.0812 N   0  0  0  0  0  0  0  0  0  0  0  0
   -3.1590   -0.0049   -0.1489 C   0  0  0  0  0  0  0  0  0  0  0  0
   -4.3477    0.2284   -0.3878 O   0  0  0  0  0  0  0  0  0  0  0  0
   -2.6580   -1.3058   -0.0964 N   0  0  0  0  0  0  0  0  0  0  0  0
   -3.5292   -2.4442   -0.3244 C   0  0  0  0  0  0  0  0  0  0  0  0
   -1.3224   -1.5027    0.1587 C   0  0  0  0  0  0  0  0  0  0  0  0
   -0.6867   -2.7046    0.2316 N   0  0  0  0  0  0  0  0  0  0  0  0
    0.5719   -2.3963    0.4764 C   0  0  0  0  0  0  0  0  0  0  0  0
    0.7484   -1.0410    0.5842 N   0  0  0  0  0  0  0  0  0  0  0  0
    1.9947   -0.3675    0.9046 C   0  0  0  0  0  0  0  0  0  0  0  0
    2.7237    0.1150   -0.3468 C   0  0  0  0  0  0  0  0  0  0  0  0
    3.4186   -0.9904   -0.9455 O   0  0  0  0  0  0  0  0  0  0  0  0
    3.7531    1.1956   -0.0079 C   0  0  0  0  0  0  0  0  0  0  0  0
    4.4552    1.5358   -1.2059 O   0  0  0  0  0  0  0  0  0  0  0  0
   -0.4697   -0.4611    0.3653 C   0  0  0  0  0  0  0  0  0  0  0  0
   -0.8788    0.8992    0.3237 C   0  0  0  0  0  0  0  0  0  0  0  0
   -0.0939    1.8310    0.4781 O   0  0  0  0  0  0  0  0  0  0  0  0
   -2.0506    3.1526    0.2778 H   0  0  0  0  0  0  0  0  0  0  0  0
   -3.6393    2.4712    0.6982 H   0  0  0  0  0  0  0  0  0  0  0  0
   -3.1436    2.5756   -1.0045 H   0  0  0  0  0  0  0  0  0  0  0  0
   -4.5654   -2.1377   -0.4897 H   0  0  0  0  0  0  0  0  0  0  0  0
   -3.1805   -2.9886   -1.2076 H   0  0  0  0  0  0  0  0  0  0  0  0
   -3.4954   -3.1023    0.5497 H   0  0  0  0  0  0  0  0  0  0  0  0
    1.3866   -3.1021    0.5834 H   0  0  0  0  0  0  0  0  0  0  0  0
    2.6091   -1.0798    1.4685 H   0  0  0  0  0  0  0  0  0  0  0  0
    1.7460    0.4604    1.5769 H   0  0  0  0  0  0  0  0  0  0  0  0
    2.0284    0.4964   -1.1037 H   0  0  0  0  0  0  0  0  0  0  0  0
    3.9973   -0.5810   -1.6222 H   0  0  0  0  0  0  0  0  0  0  0  0
    4.4905    0.8246    0.7113 H   0  0  0  0  0  0  0  0  0  0  0  0
    3.2698    2.0937    0.3885 H   0  0  0  0  0  0  0  0  0  0  0  0
    5.0618    2.2640   -0.9813 H   0  0  0  0  0  0  0  0  0  0  0  0
  1  2  1  0
  2  3  1  0
  3  4  2  0
  3  5  1  0
  5  6  1  0
  5  7  1  0
  7  8  1  0
  8  9  2  0
  9 10  1  0
 10 11  1  0
 11 12  1  0
 12 13  1  0
 12 14  1  0
 14 15  1  0
 10 16  1  0
 16 17  1  0
 17 18  2  0
 16  7  2  0
 17  2  1  0
  1 19  1  0
  1 20  1  0
  1 21  1  0
  6 22  1  0
  6 23  1  0
  6 24  1  0
  9 25  1  0
 11 26  1  0
 11 27  1  0
 12 28  1  0
 13 29  1  0
 14 30  1  0
 14 31  1  0
 15 32  1  0
M  END
>  <Energy>  (3) 
-100.79668828015105

>  <Real charge>  (3) 
0

>  <Mult>  (3) 
1

$$$$
mol_1028 507
     RDKit          3D

 32 33  0  0  0  0  0  0  0  0999 V2000
   -2.5816    2.6187    0.7914 C   0  0  0  0  0  0  0  0  0  0  0  0
   -2.1542    1.2854    0.4156 N   0  0  0  0  0  0  0  0  0  0  0  0
   -3.1423    0.2788    0.4544 C   0  0  0  0  0  0  0  0  0  0  0  0
   -4.3013    0.5415    0.7895 O   0  0  0  0  0  0  0  0  0  0  0  0
   -2.7503   -1.0131    0.1032 N   0  0  0  0  0  0  0  0  0  0  0  0
   -3.7056   -2.1058    0.1168 C   0  0  0  0  0  0  0  0  0  0  0  0
   -1.4412   -1.2487   -0.2410 C   0  0  0  0  0  0  0  0  0  0  0  0
   -0.9075   -2.4495   -0.5979 N   0  0  0  0  0  0  0  0  0  0  0  0
    0.3658   -2.1897   -0.8212 C   0  0  0  0  0  0  0  0  0  0  0  0
    0.6507   -0.8614   -0.6373 N   0  0  0  0  0  0  0  0  0  0  0  0
    1.9381   -0.2258   -0.8616 C   0  0  0  0  0  0  0  0  0  0  0  0
    2.7093   -0.0107    0.4442 C   0  0  0  0  0  0  0  0  0  0  0  0
    3.3489   -1.2420    0.8183 O   0  0  0  0  0  0  0  0  0  0  0  0
    3.7920    1.0594    0.2797 C   0  0  0  0  0  0  0  0  0  0  0  0
    4.7307    0.6172   -0.7037 O   0  0  0  0  0  0  0  0  0  0  0  0
   -0.5110   -0.2542   -0.2499 C   0  0  0  0  0  0  0  0  0  0  0  0
   -0.8063    1.0904    0.1027 C   0  0  0  0  0  0  0  0  0  0  0  0
    0.0505    1.9698    0.1358 O   0  0  0  0  0  0  0  0  0  0  0  0
   -3.4615    2.8980    0.2026 H   0  0  0  0  0  0  0  0  0  0  0  0
   -2.8609    2.6113    1.8500 H   0  0  0  0  0  0  0  0  0  0  0  0
   -1.8011    3.3674    0.6343 H   0  0  0  0  0  0  0  0  0  0  0  0
   -3.3839   -2.8512    0.8510 H   0  0  0  0  0  0  0  0  0  0  0  0
   -4.7101   -1.7657    0.3815 H   0  0  0  0  0  0  0  0  0  0  0  0
   -3.7427   -2.5621   -0.8776 H   0  0  0  0  0  0  0  0  0  0  0  0
    1.1156   -2.9137   -1.1155 H   0  0  0  0  0  0  0  0  0  0  0  0
    2.4967   -0.8685   -1.5527 H   0  0  0  0  0  0  0  0  0  0  0  0
    1.7352    0.7203   -1.3752 H   0  0  0  0  0  0  0  0  0  0  0  0
    2.0402    0.2747    1.2626 H   0  0  0  0  0  0  0  0  0  0  0  0
    4.1660   -1.2883    0.2811 H   0  0  0  0  0  0  0  0  0  0  0  0
    3.3666    2.0172   -0.0346 H   0  0  0  0  0  0  0  0  0  0  0  0
    4.3389    1.1928    1.2186 H   0  0  0  0  0  0  0  0  0  0  0  0
    5.4163    1.3077   -0.7646 H   0  0  0  0  0  0  0  0  0  0  0  0
  1  2  1  0
  2  3  1  0
  3  4  2  0
  3  5  1  0
  5  6  1  0
  5  7  1  0
  7  8  1  0
  8  9  2  0
  9 10  1  0
 10 11  1  0
 11 12  1  0
 12 13  1  0
 12 14  1  0
 14 15  1  0
 10 16  1  0
 16 17  1  0
 17 18  2  0
 16  7  2  0
 17  2  1  0
  1 19  1  0
  1 20  1  0
  1 21  1  0
  6 22  1  0
  6 23  1  0
  6 24  1  0
  9 25  1  0
 11 26  1  0
 11 27  1  0
 12 28  1  0
 13 29  1  0
 14 30  1  0
 14 31  1  0
 15 32  1  0
M  END
>  <Energy>  (4) 
-100.6372286427174

>  <Real charge>  (4) 
0

>  <Mult>  (4) 
1

$$$$
mol_1028 474
     RDKit          3D

 32 33  0  0  0  0  0  0  0  0999 V2000
   -2.6698    1.4629   -1.9483 C   0  0  0  0  0  0  0  0  0  0  0  0
   -2.1654    0.6614   -0.8500 N   0  0  0  0  0  0  0  0  0  0  0  0
   -3.0656   -0.2668   -0.2863 C   0  0  0  0  0  0  0  0  0  0  0  0
   -4.2176   -0.3751   -0.7161 O   0  0  0  0  0  0  0  0  0  0  0  0
   -2.5926   -1.0539    0.7641 N   0  0  0  0  0  0  0  0  0  0  0  0
   -3.4588   -2.0255    1.4073 C   0  0  0  0  0  0  0  0  0  0  0  0
   -1.2915   -0.9095    1.1809 C   0  0  0  0  0  0  0  0  0  0  0  0
   -0.6895   -1.6036    2.1846 N   0  0  0  0  0  0  0  0  0  0  0  0
    0.5391   -1.1298    2.2221 C   0  0  0  0  0  0  0  0  0  0  0  0
    0.7403   -0.1643    1.2673 N   0  0  0  0  0  0  0  0  0  0  0  0
    1.9753    0.5813    1.0748 C   0  0  0  0  0  0  0  0  0  0  0  0
    2.7192    0.1706   -0.2069 C   0  0  0  0  0  0  0  0  0  0  0  0
    2.6440    1.2246   -1.1818 O   0  0  0  0  0  0  0  0  0  0  0  0
    4.2075   -0.0662    0.0646 C   0  0  0  0  0  0  0  0  0  0  0  0
    4.8030    1.1319    0.5595 O   0  0  0  0  0  0  0  0  0  0  0  0
   -0.4398   -0.0247    0.5910 C   0  0  0  0  0  0  0  0  0  0  0  0
   -0.8213    0.8022   -0.4997 C   0  0  0  0  0  0  0  0  0  0  0  0
   -0.0233    1.5355   -1.0781 O   0  0  0  0  0  0  0  0  0  0  0  0
   -3.6410    1.8903   -1.6787 H   0  0  0  0  0  0  0  0  0  0  0  0
   -1.9894    2.2768   -2.2121 H   0  0  0  0  0  0  0  0  0  0  0  0
   -2.8047    0.8132   -2.8191 H   0  0  0  0  0  0  0  0  0  0  0  0
   -3.5200   -1.7987    2.4764 H   0  0  0  0  0  0  0  0  0  0  0  0
   -4.4690   -2.0107    0.9899 H   0  0  0  0  0  0  0  0  0  0  0  0
   -3.0372   -3.0260    1.2678 H   0  0  0  0  0  0  0  0  0  0  0  0
    1.3113   -1.4434    2.9142 H   0  0  0  0  0  0  0  0  0  0  0  0
    2.5837    0.3926    1.9673 H   0  0  0  0  0  0  0  0  0  0  0  0
    1.7072    1.6440    1.0747 H   0  0  0  0  0  0  0  0  0  0  0  0
    2.2931   -0.7327   -0.6581 H   0  0  0  0  0  0  0  0  0  0  0  0
    1.6929    1.4292   -1.3282 H   0  0  0  0  0  0  0  0  0  0  0  0
    4.7322   -0.3367   -0.8577 H   0  0  0  0  0  0  0  0  0  0  0  0
    4.3586   -0.8615    0.8006 H   0  0  0  0  0  0  0  0  0  0  0  0
    4.5891    1.8129   -0.1108 H   0  0  0  0  0  0  0  0  0  0  0  0
  1  2  1  0
  2  3  1  0
  3  4  2  0
  3  5  1  0
  5  6  1  0
  5  7  1  0
  7  8  1  0
  8  9  2  0
  9 10  1  0
 10 11  1  0
 11 12  1  0
 12 13  1  0
 12 14  1  0
 14 15  1  0
 10 16  1  0
 16 17  1  0
 17 18  2  0
 16  7  2  0
 17  2  1  0
  1 19  1  0
  1 20  1  0
  1 21  1  0
  6 22  1  0
  6 23  1  0
  6 24  1  0
  9 25  1  0
 11 26  1  0
 11 27  1  0
 12 28  1  0
 13 29  1  0
 14 30  1  0
 14 31  1  0
 15 32  1  0
M  END
>  <Energy>  (5) 
-100.44187488089518

>  <Real charge>  (5) 
0

>  <Mult>  (5) 
1

$$$$
mol_1028 132
     RDKit          3D

 32 33  0  0  0  0  0  0  0  0999 V2000
   -1.6032   -1.0829   -3.0861 C   0  0  0  0  0  0  0  0  0  0  0  0
   -1.5728   -0.6895   -1.6908 N   0  0  0  0  0  0  0  0  0  0  0  0
   -2.6197   -1.1727   -0.8795 C   0  0  0  0  0  0  0  0  0  0  0  0
   -3.5054   -1.8935   -1.3483 O   0  0  0  0  0  0  0  0  0  0  0  0
   -2.6011   -0.8077    0.4663 N   0  0  0  0  0  0  0  0  0  0  0  0
   -3.6515   -1.2491    1.3663 C   0  0  0  0  0  0  0  0  0  0  0  0
   -1.5708   -0.0317    0.9394 C   0  0  0  0  0  0  0  0  0  0  0  0
   -1.4212    0.4019    2.2204 N   0  0  0  0  0  0  0  0  0  0  0  0
   -0.3085    1.1059    2.2010 C   0  0  0  0  0  0  0  0  0  0  0  0
    0.2626    1.1196    0.9521 N   0  0  0  0  0  0  0  0  0  0  0  0
    1.4669    1.8430    0.6040 C   0  0  0  0  0  0  0  0  0  0  0  0
    2.7516    1.0731    0.9053 C   0  0  0  0  0  0  0  0  0  0  0  0
    3.8521    1.9969    0.9113 O   0  0  0  0  0  0  0  0  0  0  0  0
    3.0547   -0.0231   -0.1196 C   0  0  0  0  0  0  0  0  0  0  0  0
    4.3134   -0.6119    0.2247 O   0  0  0  0  0  0  0  0  0  0  0  0
   -0.5517    0.3851    0.1355 C   0  0  0  0  0  0  0  0  0  0  0  0
   -0.4724    0.0466   -1.2438 C   0  0  0  0  0  0  0  0  0  0  0  0
    0.4861    0.3516   -1.9473 O   0  0  0  0  0  0  0  0  0  0  0  0
   -0.8950   -0.5109   -3.6913 H   0  0  0  0  0  0  0  0  0  0  0  0
   -2.6093   -0.9364   -3.4922 H   0  0  0  0  0  0  0  0  0  0  0  0
   -1.3520   -2.1465   -3.1518 H   0  0  0  0  0  0  0  0  0  0  0  0
   -4.4147   -1.8341    0.8465 H   0  0  0  0  0  0  0  0  0  0  0  0
   -3.2096   -1.8699    2.1521 H   0  0  0  0  0  0  0  0  0  0  0  0
   -4.1299   -0.3732    1.8158 H   0  0  0  0  0  0  0  0  0  0  0  0
    0.1249    1.6223    3.0491 H   0  0  0  0  0  0  0  0  0  0  0  0
    1.4512    2.7789    1.1778 H   0  0  0  0  0  0  0  0  0  0  0  0
    1.4138    2.1462   -0.4468 H   0  0  0  0  0  0  0  0  0  0  0  0
    2.7181    0.6361    1.9104 H   0  0  0  0  0  0  0  0  0  0  0  0
    4.6518    1.4301    0.9058 H   0  0  0  0  0  0  0  0  0  0  0  0
    2.2926   -0.8066   -0.1128 H   0  0  0  0  0  0  0  0  0  0  0  0
    3.1552    0.3960   -1.1256 H   0  0  0  0  0  0  0  0  0  0  0  0
    4.4936   -1.2937   -0.4478 H   0  0  0  0  0  0  0  0  0  0  0  0
  1  2  1  0
  2  3  1  0
  3  4  2  0
  3  5  1  0
  5  6  1  0
  5  7  1  0
  7  8  1  0
  8  9  2  0
  9 10  1  0
 10 11  1  0
 11 12  1  0
 12 13  1  0
 12 14  1  0
 14 15  1  0
 10 16  1  0
 16 17  1  0
 17 18  2  0
 16  7  2  0
 17  2  1  0
  1 19  1  0
  1 20  1  0
  1 21  1  0
  6 22  1  0
  6 23  1  0
  6 24  1  0
  9 25  1  0
 11 26  1  0
 11 27  1  0
 12 28  1  0
 13 29  1  0
 14 30  1  0
 14 31  1  0
 15 32  1  0
M  END
>  <Energy>  (6) 
-100.3234388089127

>  <Real charge>  (6) 
0

>  <Mult>  (6) 
1

$$$$
