mol_120 3
     RDKit          3D

 22 23  0  0  0  0  0  0  0  0999 V2000
    0.7411   -0.5505   -2.8314 Cl  0  0  0  0  0  0  0  0  0  0  0  0
    1.4864   -0.3704   -1.2791 C   0  0  0  0  0  0  0  0  0  0  0  0
    2.8762   -0.5257   -1.2117 C   0  0  0  0  0  0  0  0  0  0  0  0
    3.5384   -0.4062    0.0093 C   0  0  0  0  0  0  0  0  0  0  0  0
    2.8137   -0.1327    1.1655 C   0  0  0  0  0  0  0  0  0  0  0  0
    1.4267    0.0224    1.1003 C   0  0  0  0  0  0  0  0  0  0  0  0
    0.7362   -0.0915   -0.1212 C   0  0  0  0  0  0  0  0  0  0  0  0
   -0.7230    0.0843   -0.1324 C   0  0  0  0  0  0  0  0  0  0  0  0
   -1.5702   -0.9321    0.3360 C   0  0  0  0  0  0  0  0  0  0  0  0
   -2.9567   -0.7629    0.3370 C   0  0  0  0  0  0  0  0  0  0  0  0
   -3.5143    0.4262   -0.1280 C   0  0  0  0  0  0  0  0  0  0  0  0
   -2.6875    1.4462   -0.5940 C   0  0  0  0  0  0  0  0  0  0  0  0
   -1.3010    1.2769   -0.5948 C   0  0  0  0  0  0  0  0  0  0  0  0
    3.4474   -0.7426   -2.1110 H   0  0  0  0  0  0  0  0  0  0  0  0
    4.6176   -0.5276    0.0575 H   0  0  0  0  0  0  0  0  0  0  0  0
    3.3255   -0.0382    2.1202 H   0  0  0  0  0  0  0  0  0  0  0  0
    0.8766    0.2406    2.0147 H   0  0  0  0  0  0  0  0  0  0  0  0
   -1.1503   -1.8685    0.6977 H   0  0  0  0  0  0  0  0  0  0  0  0
   -3.6002   -1.5609    0.6979 H   0  0  0  0  0  0  0  0  0  0  0  0
   -4.5932    0.5571   -0.1299 H   0  0  0  0  0  0  0  0  0  0  0  0
   -3.1204    2.3736   -0.9595 H   0  0  0  0  0  0  0  0  0  0  0  0
   -0.6689    2.0825   -0.9627 H   0  0  0  0  0  0  0  0  0  0  0  0
  1  2  1  0
  2  3  2  0
  3  4  1  0
  4  5  2  0
  5  6  1  0
  6  7  2  0
  7  8  1  0
  8  9  2  0
  9 10  1  0
 10 11  2  0
 11 12  1  0
 12 13  2  0
  7  2  1  0
 13  8  1  0
  3 14  1  0
  4 15  1  0
  5 16  1  0
  6 17  1  0
  9 18  1  0
 10 19  1  0
 11 20  1  0
 12 21  1  0
 13 22  1  0
M  END
>  <Energy>  (1) 
46.88021796144171

>  <Real charge>  (1) 
0

>  <Mult>  (1) 
1

$$$$
