mol_86 12
     RDKit          3D

  8  7  0  0  0  0  0  0  0  0999 V2000
   -1.5839    0.1334    1.5666 Cl  0  0  0  0  0  0  0  0  0  0  0  0
   -0.7792   -0.0526   -0.0481 C   0  0  0  0  0  0  0  0  0  0  0  0
   -1.4910    1.2202   -1.1265 Cl  0  0  0  0  0  0  0  0  0  0  0  0
   -1.3226   -1.6507   -0.7118 Cl  0  0  0  0  0  0  0  0  0  0  0  0
    0.7792    0.0526    0.0481 C   0  0  0  0  0  0  0  0  0  0  0  0
    1.5839   -0.1334   -1.5666 Cl  0  0  0  0  0  0  0  0  0  0  0  0
    1.4910   -1.2202    1.1265 Cl  0  0  0  0  0  0  0  0  0  0  0  0
    1.3226    1.6507    0.7118 Cl  0  0  0  0  0  0  0  0  0  0  0  0
  1  2  1  0
  2  3  1  0
  2  4  1  0
  2  5  1  0
  5  6  1  0
  5  7  1  0
  5  8  1  0
M  END
>  <Energy>  (1) 
60.718235144260326

>  <Real charge>  (1) 
0

>  <Mult>  (1) 
1

$$$$
