mol_943 18
     RDKit          3D

 16 15  0  0  0  0  0  0  0  0999 V2000
   -2.9540   -0.4201   -0.2785 C   0  0  0  0  0  0  0  0  0  0  0  0
   -1.8661    0.3220   -0.0364 C   0  0  0  0  0  0  0  0  0  0  0  0
   -0.4890   -0.2434    0.1746 C   0  0  0  0  0  0  0  0  0  0  0  0
    0.4890    0.2434   -0.8995 C   0  0  0  0  0  0  0  0  0  0  0  0
    1.8660   -0.3220   -0.6885 C   0  0  0  0  0  0  0  0  0  0  0  0
    2.9540    0.4201   -0.4464 C   0  0  0  0  0  0  0  0  0  0  0  0
   -2.9047   -1.5026   -0.3442 H   0  0  0  0  0  0  0  0  0  0  0  0
   -3.9247    0.0463   -0.4165 H   0  0  0  0  0  0  0  0  0  0  0  0
   -1.9684    1.4037    0.0263 H   0  0  0  0  0  0  0  0  0  0  0  0
   -0.5205   -1.3404    0.1800 H   0  0  0  0  0  0  0  0  0  0  0  0
   -0.1379    0.0661    1.1670 H   0  0  0  0  0  0  0  0  0  0  0  0
    0.1379   -0.0661   -1.8919 H   0  0  0  0  0  0  0  0  0  0  0  0
    0.5205    1.3404   -0.9049 H   0  0  0  0  0  0  0  0  0  0  0  0
    1.9684   -1.4037   -0.7512 H   0  0  0  0  0  0  0  0  0  0  0  0
    3.9247   -0.0464   -0.3085 H   0  0  0  0  0  0  0  0  0  0  0  0
    2.9047    1.5026   -0.3808 H   0  0  0  0  0  0  0  0  0  0  0  0
  1  2  2  3
  2  3  1  0
  3  4  1  0
  4  5  1  0
  5  6  2  3
  1  7  1  0
  1  8  1  0
  2  9  1  0
  3 10  1  0
  3 11  1  0
  4 12  1  0
  4 13  1  0
  5 14  1  0
  6 15  1  0
  6 16  1  0
M  END
>  <Energy>  (1) 
20.868502522276806

>  <Real charge>  (1) 
0

>  <Mult>  (1) 
1

$$$$
mol_943 130
     RDKit          3D

 16 15  0  0  0  0  0  0  0  0999 V2000
    2.8422    0.5451   -0.0367 C   0  0  0  0  0  0  0  0  0  0  0  0
    1.9094   -0.3849   -0.2769 C   0  0  0  0  0  0  0  0  0  0  0  0
    0.5547   -0.4080    0.3746 C   0  0  0  0  0  0  0  0  0  0  0  0
   -0.5683   -0.2699   -0.6583 C   0  0  0  0  0  0  0  0  0  0  0  0
   -1.9240   -0.3374   -0.0117 C   0  0  0  0  0  0  0  0  0  0  0  0
   -2.8179    0.6591   -0.0366 C   0  0  0  0  0  0  0  0  0  0  0  0
    2.6688    1.3623    0.6568 H   0  0  0  0  0  0  0  0  0  0  0  0
    3.8065    0.5063   -0.5341 H   0  0  0  0  0  0  0  0  0  0  0  0
    2.1330   -1.1878   -0.9767 H   0  0  0  0  0  0  0  0  0  0  0  0
    0.4508   -1.3562    0.9170 H   0  0  0  0  0  0  0  0  0  0  0  0
    0.4720    0.3923    1.1211 H   0  0  0  0  0  0  0  0  0  0  0  0
   -0.4998   -1.0783   -1.3970 H   0  0  0  0  0  0  0  0  0  0  0  0
   -0.4506    0.6715   -1.2101 H   0  0  0  0  0  0  0  0  0  0  0  0
   -2.1824   -1.2654    0.4946 H   0  0  0  0  0  0  0  0  0  0  0  0
   -3.7853    0.5499    0.4443 H   0  0  0  0  0  0  0  0  0  0  0  0
   -2.6091    1.6016   -0.5334 H   0  0  0  0  0  0  0  0  0  0  0  0
  1  2  2  3
  2  3  1  0
  3  4  1  0
  4  5  1  0
  5  6  2  3
  1  7  1  0
  1  8  1  0
  2  9  1  0
  3 10  1  0
  3 11  1  0
  4 12  1  0
  4 13  1  0
  5 14  1  0
  6 15  1  0
  6 16  1  0
M  END
>  <Energy>  (2) 
20.892122198127485

>  <Real charge>  (2) 
0

>  <Mult>  (2) 
1

$$$$
mol_943 57
     RDKit          3D

 16 15  0  0  0  0  0  0  0  0999 V2000
    2.5731   -0.6584   -0.1424 C   0  0  0  0  0  0  0  0  0  0  0  0
    1.3728   -0.4538    0.4147 C   0  0  0  0  0  0  0  0  0  0  0  0
    0.6838    0.8827    0.4716 C   0  0  0  0  0  0  0  0  0  0  0  0
   -0.6522    0.9034   -0.2834 C   0  0  0  0  0  0  0  0  0  0  0  0
   -1.7294    0.0993    0.3939 C   0  0  0  0  0  0  0  0  0  0  0  0
   -2.3570   -0.9400   -0.1708 C   0  0  0  0  0  0  0  0  0  0  0  0
    3.1352    0.1477   -0.6033 H   0  0  0  0  0  0  0  0  0  0  0  0
    3.0199   -1.6480   -0.1477 H   0  0  0  0  0  0  0  0  0  0  0  0
    0.8523   -1.2955    0.8680 H   0  0  0  0  0  0  0  0  0  0  0  0
    0.5276    1.1525    1.5234 H   0  0  0  0  0  0  0  0  0  0  0  0
    1.3336    1.6572    0.0450 H   0  0  0  0  0  0  0  0  0  0  0  0
   -1.0023    1.9414   -0.3426 H   0  0  0  0  0  0  0  0  0  0  0  0
   -0.5020    0.5657   -1.3166 H   0  0  0  0  0  0  0  0  0  0  0  0
   -2.0105    0.4024    1.4004 H   0  0  0  0  0  0  0  0  0  0  0  0
   -2.1132   -1.2768   -1.1738 H   0  0  0  0  0  0  0  0  0  0  0  0
   -3.1316   -1.4798    0.3651 H   0  0  0  0  0  0  0  0  0  0  0  0
  1  2  2  3
  2  3  1  0
  3  4  1  0
  4  5  1  0
  5  6  2  3
  1  7  1  0
  1  8  1  0
  2  9  1  0
  3 10  1  0
  3 11  1  0
  4 12  1  0
  4 13  1  0
  5 14  1  0
  6 15  1  0
  6 16  1  0
M  END
>  <Energy>  (3) 
20.97393420778543

>  <Real charge>  (3) 
0

>  <Mult>  (3) 
1

$$$$
mol_943 178
     RDKit          3D

 16 15  0  0  0  0  0  0  0  0999 V2000
   -2.8070   -0.4707    0.3211 C   0  0  0  0  0  0  0  0  0  0  0  0
   -1.6381    0.0305   -0.0979 C   0  0  0  0  0  0  0  0  0  0  0  0
   -0.4491    0.2612    0.7956 C   0  0  0  0  0  0  0  0  0  0  0  0
    0.7522   -0.6333    0.4597 C   0  0  0  0  0  0  0  0  0  0  0  0
    1.4093   -0.2895   -0.8500 C   0  0  0  0  0  0  0  0  0  0  0  0
    2.6522    0.1959   -0.9627 C   0  0  0  0  0  0  0  0  0  0  0  0
   -2.9689   -0.7571    1.3556 H   0  0  0  0  0  0  0  0  0  0  0  0
   -3.6330   -0.6051   -0.3707 H   0  0  0  0  0  0  0  0  0  0  0  0
   -1.5314    0.3106   -1.1438 H   0  0  0  0  0  0  0  0  0  0  0  0
   -0.7304    0.0802    1.8409 H   0  0  0  0  0  0  0  0  0  0  0  0
   -0.1618    1.3180    0.7315 H   0  0  0  0  0  0  0  0  0  0  0  0
    0.4426   -1.6854    0.4315 H   0  0  0  0  0  0  0  0  0  0  0  0
    1.4825   -0.5477    1.2744 H   0  0  0  0  0  0  0  0  0  0  0  0
    0.8317   -0.4696   -1.7543 H   0  0  0  0  0  0  0  0  0  0  0  0
    3.2738    0.3847   -0.0930 H   0  0  0  0  0  0  0  0  0  0  0  0
    3.0756    0.4159   -1.9380 H   0  0  0  0  0  0  0  0  0  0  0  0
  1  2  2  3
  2  3  1  0
  3  4  1  0
  4  5  1  0
  5  6  2  3
  1  7  1  0
  1  8  1  0
  2  9  1  0
  3 10  1  0
  3 11  1  0
  4 12  1  0
  4 13  1  0
  5 14  1  0
  6 15  1  0
  6 16  1  0
M  END
>  <Energy>  (4) 
21.159479366232734

>  <Real charge>  (4) 
0

>  <Mult>  (4) 
1

$$$$
mol_943 80
     RDKit          3D

 16 15  0  0  0  0  0  0  0  0999 V2000
    2.5715   -0.0464   -0.6940 C   0  0  0  0  0  0  0  0  0  0  0  0
    2.0063   -0.1533    0.5156 C   0  0  0  0  0  0  0  0  0  0  0  0
    0.5361   -0.2192    0.8411 C   0  0  0  0  0  0  0  0  0  0  0  0
   -0.4359   -0.1490   -0.3438 C   0  0  0  0  0  0  0  0  0  0  0  0
   -1.8663   -0.2514    0.1107 C   0  0  0  0  0  0  0  0  0  0  0  0
   -2.7804    0.7115   -0.0624 C   0  0  0  0  0  0  0  0  0  0  0  0
    1.9925    0.0062   -1.6096 H   0  0  0  0  0  0  0  0  0  0  0  0
    3.6526   -0.0081   -0.7939 H   0  0  0  0  0  0  0  0  0  0  0  0
    2.6669   -0.1996    1.3810 H   0  0  0  0  0  0  0  0  0  0  0  0
    0.3623   -1.1511    1.3949 H   0  0  0  0  0  0  0  0  0  0  0  0
    0.3134    0.6012    1.5357 H   0  0  0  0  0  0  0  0  0  0  0  0
   -0.2411   -0.9746   -1.0392 H   0  0  0  0  0  0  0  0  0  0  0  0
   -0.2790    0.7839   -0.8997 H   0  0  0  0  0  0  0  0  0  0  0  0
   -2.1620   -1.1781    0.5988 H   0  0  0  0  0  0  0  0  0  0  0  0
   -2.5358    1.6510   -0.5485 H   0  0  0  0  0  0  0  0  0  0  0  0
   -3.8012    0.5769    0.2824 H   0  0  0  0  0  0  0  0  0  0  0  0
  1  2  2  3
  2  3  1  0
  3  4  1  0
  4  5  1  0
  5  6  2  3
  1  7  1  0
  1  8  1  0
  2  9  1  0
  3 10  1  0
  3 11  1  0
  4 12  1  0
  4 13  1  0
  5 14  1  0
  6 15  1  0
  6 16  1  0
M  END
>  <Energy>  (5) 
21.282365951274787

>  <Real charge>  (5) 
0

>  <Mult>  (5) 
1

$$$$
mol_943 49
     RDKit          3D

 16 15  0  0  0  0  0  0  0  0999 V2000
    2.1171   -0.1261   -1.2205 C   0  0  0  0  0  0  0  0  0  0  0  0
    1.4797   -0.5269   -0.1132 C   0  0  0  0  0  0  0  0  0  0  0  0
    0.8298    0.4068    0.8712 C   0  0  0  0  0  0  0  0  0  0  0  0
   -0.6675    0.1320    1.0660 C   0  0  0  0  0  0  0  0  0  0  0  0
   -1.4946    0.4773   -0.1422 C   0  0  0  0  0  0  0  0  0  0  0  0
   -2.2742   -0.3952   -0.7931 C   0  0  0  0  0  0  0  0  0  0  0  0
    2.5677   -0.8488   -1.8938 H   0  0  0  0  0  0  0  0  0  0  0  0
    2.1994    0.9237   -1.4836 H   0  0  0  0  0  0  0  0  0  0  0  0
    1.4236   -1.5909    0.1069 H   0  0  0  0  0  0  0  0  0  0  0  0
    0.9814    1.4528    0.5761 H   0  0  0  0  0  0  0  0  0  0  0  0
    1.3353    0.2793    1.8364 H   0  0  0  0  0  0  0  0  0  0  0  0
   -1.0272    0.7431    1.9030 H   0  0  0  0  0  0  0  0  0  0  0  0
   -0.8193   -0.9151    1.3571 H   0  0  0  0  0  0  0  0  0  0  0  0
   -1.4490    1.5066   -0.4919 H   0  0  0  0  0  0  0  0  0  0  0  0
   -2.3527   -1.4325   -0.4832 H   0  0  0  0  0  0  0  0  0  0  0  0
   -2.8494   -0.0860   -1.6604 H   0  0  0  0  0  0  0  0  0  0  0  0
  1  2  2  3
  2  3  1  0
  3  4  1  0
  4  5  1  0
  5  6  2  3
  1  7  1  0
  1  8  1  0
  2  9  1  0
  3 10  1  0
  3 11  1  0
  4 12  1  0
  4 13  1  0
  5 14  1  0
  6 15  1  0
  6 16  1  0
M  END
>  <Energy>  (6) 
21.297989812240225

>  <Real charge>  (6) 
0

>  <Mult>  (6) 
1

$$$$
mol_943 152
     RDKit          3D

 16 15  0  0  0  0  0  0  0  0999 V2000
    2.6277    0.5354    0.2605 C   0  0  0  0  0  0  0  0  0  0  0  0
    1.8424   -0.5344    0.4413 C   0  0  0  0  0  0  0  0  0  0  0  0
    0.3546   -0.6347    0.2152 C   0  0  0  0  0  0  0  0  0  0  0  0
   -0.3546    0.6347   -0.2813 C   0  0  0  0  0  0  0  0  0  0  0  0
   -1.8424    0.5343   -0.5074 C   0  0  0  0  0  0  0  0  0  0  0  0
   -2.6277   -0.5354   -0.3266 C   0  0  0  0  0  0  0  0  0  0  0  0
    3.6936    0.4747    0.4615 H   0  0  0  0  0  0  0  0  0  0  0  0
    2.2482    1.4903   -0.0865 H   0  0  0  0  0  0  0  0  0  0  0  0
    2.3117   -1.4529    0.7929 H   0  0  0  0  0  0  0  0  0  0  0  0
   -0.0982   -0.9529    1.1629 H   0  0  0  0  0  0  0  0  0  0  0  0
    0.1885   -1.4454   -0.5056 H   0  0  0  0  0  0  0  0  0  0  0  0
    0.0982    0.9529   -1.2290 H   0  0  0  0  0  0  0  0  0  0  0  0
   -0.1885    1.4454    0.4395 H   0  0  0  0  0  0  0  0  0  0  0  0
   -2.3117    1.4528   -0.8592 H   0  0  0  0  0  0  0  0  0  0  0  0
   -2.2482   -1.4903    0.0204 H   0  0  0  0  0  0  0  0  0  0  0  0
   -3.6936   -0.4747   -0.5277 H   0  0  0  0  0  0  0  0  0  0  0  0
  1  2  2  3
  2  3  1  0
  3  4  1  0
  4  5  1  0
  5  6  2  3
  1  7  1  0
  1  8  1  0
  2  9  1  0
  3 10  1  0
  3 11  1  0
  4 12  1  0
  4 13  1  0
  5 14  1  0
  6 15  1  0
  6 16  1  0
M  END
>  <Energy>  (7) 
21.785476442604605

>  <Real charge>  (7) 
0

>  <Mult>  (7) 
1

$$$$
