mol_161 71
     RDKit          3D

 28 28  0  0  0  0  0  0  0  0999 V2000
    4.5105   -0.8951   -0.9633 C   0  0  0  0  0  0  0  0  0  0  0  0
    3.9313    0.6755   -0.2861 S   0  0  0  0  0  0  0  0  0  0  0  0
    2.2036    0.3616   -0.1701 C   0  0  0  0  0  0  0  0  0  0  0  0
    1.6967   -0.6512   -0.7941 N   0  0  0  0  0  0  0  0  0  0  0  0
    0.3313   -0.9235   -0.7093 N   0  0  0  0  0  0  0  0  0  0  0  0
   -0.4590   -0.1184   -0.0645 C   0  0  0  0  0  0  0  0  0  0  0  0
    0.0777    1.1395    0.5973 C   0  0  0  0  0  0  0  0  0  0  0  0
   -0.6758    1.9785    1.0766 O   0  0  0  0  0  0  0  0  0  0  0  0
    1.4544    1.2554    0.5700 N   0  0  0  0  0  0  0  0  0  0  0  0
    2.0412    2.3775    1.2543 N   0  0  0  0  0  0  0  0  0  0  0  0
   -1.9669   -0.4310    0.0337 C   0  0  0  0  0  0  0  0  0  0  0  0
   -2.4030   -0.5123    1.5044 C   0  0  0  0  0  0  0  0  0  0  0  0
   -2.7763    0.6366   -0.7165 C   0  0  0  0  0  0  0  0  0  0  0  0
   -2.2713   -1.7975   -0.6189 C   0  0  0  0  0  0  0  0  0  0  0  0
    4.2305   -1.7258   -0.3096 H   0  0  0  0  0  0  0  0  0  0  0  0
    5.6011   -0.8704   -1.0383 H   0  0  0  0  0  0  0  0  0  0  0  0
    4.1034   -1.0608   -1.9645 H   0  0  0  0  0  0  0  0  0  0  0  0
    2.6649    2.8445    0.5924 H   0  0  0  0  0  0  0  0  0  0  0  0
    1.2810    3.0390    1.4481 H   0  0  0  0  0  0  0  0  0  0  0  0
   -2.3575    0.4579    2.0075 H   0  0  0  0  0  0  0  0  0  0  0  0
   -1.7617   -1.2013    2.0659 H   0  0  0  0  0  0  0  0  0  0  0  0
   -3.4363   -0.8673    1.5917 H   0  0  0  0  0  0  0  0  0  0  0  0
   -2.4123    0.7550   -1.7436 H   0  0  0  0  0  0  0  0  0  0  0  0
   -3.8377    0.3673   -0.7644 H   0  0  0  0  0  0  0  0  0  0  0  0
   -2.7170    1.6177   -0.2365 H   0  0  0  0  0  0  0  0  0  0  0  0
   -1.9994   -1.8037   -1.6810 H   0  0  0  0  0  0  0  0  0  0  0  0
   -3.3377   -2.0421   -0.5517 H   0  0  0  0  0  0  0  0  0  0  0  0
   -1.7155   -2.6058   -0.1293 H   0  0  0  0  0  0  0  0  0  0  0  0
  1  2  1  0
  2  3  1  0
  3  4  2  0
  4  5  1  0
  5  6  2  0
  6  7  1  0
  7  8  2  0
  7  9  1  0
  9 10  1  0
  6 11  1  0
 11 12  1  0
 11 13  1  0
 11 14  1  0
  9  3  1  0
  1 15  1  0
  1 16  1  0
  1 17  1  0
 10 18  1  0
 10 19  1  0
 12 20  1  0
 12 21  1  0
 12 22  1  0
 13 23  1  0
 13 24  1  0
 13 25  1  0
 14 26  1  0
 14 27  1  0
 14 28  1  0
M  END
>  <Energy>  (1) 
112.5923265150955

>  <Real charge>  (1) 
0

>  <Mult>  (1) 
1

$$$$
