mol_736 71
     RDKit          3D

 13 13  0  0  0  0  0  0  0  0999 V2000
    2.2811    0.9663   -0.1297 O   0  0  0  0  0  0  0  0  0  0  0  0
    1.0100    0.4658   -0.0582 C   0  0  0  0  0  0  0  0  0  0  0  0
   -0.0380    1.3799   -0.0250 C   0  0  0  0  0  0  0  0  0  0  0  0
   -1.3534    0.9188    0.0479 C   0  0  0  0  0  0  0  0  0  0  0  0
   -1.6148   -0.4528    0.0873 C   0  0  0  0  0  0  0  0  0  0  0  0
   -0.5603   -1.3683    0.0538 C   0  0  0  0  0  0  0  0  0  0  0  0
    0.7535   -0.9067   -0.0190 C   0  0  0  0  0  0  0  0  0  0  0  0
    2.0521   -2.0402   -0.0601 Cl  0  0  0  0  0  0  0  0  0  0  0  0
    2.8877    0.2026   -0.1444 H   0  0  0  0  0  0  0  0  0  0  0  0
    0.1688    2.4460   -0.0558 H   0  0  0  0  0  0  0  0  0  0  0  0
   -2.1753    1.6303    0.0741 H   0  0  0  0  0  0  0  0  0  0  0  0
   -2.6411   -0.8079    0.1441 H   0  0  0  0  0  0  0  0  0  0  0  0
   -0.7703   -2.4339    0.0848 H   0  0  0  0  0  0  0  0  0  0  0  0
  1  2  1  0
  2  3  2  0
  3  4  1  0
  4  5  2  0
  5  6  1  0
  6  7  2  0
  7  8  1  0
  7  2  1  0
  1  9  1  0
  3 10  1  0
  4 11  1  0
  5 12  1  0
  6 13  1  0
M  END
>  <Energy>  (1) 
19.012930129136123

>  <Real charge>  (1) 
0

>  <Mult>  (1) 
1

$$$$
