mol_236 127
     RDKit          3D

 28 28  0  0  0  0  0  0  0  0999 V2000
    4.9739   -1.2730    0.6617 C   0  0  0  0  0  0  0  0  0  0  0  0
    3.8944   -0.5035   -0.0832 C   0  0  0  0  0  0  0  0  0  0  0  0
    2.5915   -1.0374    0.2720 N   0  0  0  0  0  0  0  0  0  0  0  0
    1.5080   -0.3763   -0.2931 C   0  0  0  0  0  0  0  0  0  0  0  0
    1.6074    0.1683   -1.4912 N   0  0  0  0  0  0  0  0  0  0  0  0
    0.4887    0.7438   -1.9001 C   0  0  0  0  0  0  0  0  0  0  0  0
    0.5428    1.4666   -3.4487 Cl  0  0  0  0  0  0  0  0  0  0  0  0
   -0.6662    0.8316   -1.2613 N   0  0  0  0  0  0  0  0  0  0  0  0
   -0.6522    0.2609   -0.0717 C   0  0  0  0  0  0  0  0  0  0  0  0
   -1.7808    0.2791    0.7302 N   0  0  0  0  0  0  0  0  0  0  0  0
   -3.0834    0.3000    0.0771 C   0  0  0  0  0  0  0  0  0  0  0  0
   -3.4168   -1.0700   -0.5133 C   0  0  0  0  0  0  0  0  0  0  0  0
   -4.1306    0.6901    1.1210 C   0  0  0  0  0  0  0  0  0  0  0  0
    0.4062   -0.3510    0.4485 N   0  0  0  0  0  0  0  0  0  0  0  0
    5.9650   -0.8891    0.4007 H   0  0  0  0  0  0  0  0  0  0  0  0
    4.9411   -2.3384    0.4097 H   0  0  0  0  0  0  0  0  0  0  0  0
    4.8456   -1.1812    1.7455 H   0  0  0  0  0  0  0  0  0  0  0  0
    4.0755   -0.6024   -1.1601 H   0  0  0  0  0  0  0  0  0  0  0  0
    3.9625    0.5583    0.1831 H   0  0  0  0  0  0  0  0  0  0  0  0
    2.4027   -1.1031    1.2671 H   0  0  0  0  0  0  0  0  0  0  0  0
   -1.6581   -0.4202    1.4545 H   0  0  0  0  0  0  0  0  0  0  0  0
   -3.1143    1.0581   -0.7153 H   0  0  0  0  0  0  0  0  0  0  0  0
   -4.4154   -1.0666   -0.9629 H   0  0  0  0  0  0  0  0  0  0  0  0
   -2.7020   -1.3517   -1.2937 H   0  0  0  0  0  0  0  0  0  0  0  0
   -3.3920   -1.8517    0.2543 H   0  0  0  0  0  0  0  0  0  0  0  0
   -3.9050    1.6738    1.5475 H   0  0  0  0  0  0  0  0  0  0  0  0
   -4.1596   -0.0292    1.9474 H   0  0  0  0  0  0  0  0  0  0  0  0
   -5.1292    0.7365    0.6741 H   0  0  0  0  0  0  0  0  0  0  0  0
  1  2  1  0
  2  3  1  0
  3  4  1  0
  4  5  2  0
  5  6  1  0
  6  7  1  0
  6  8  2  0
  8  9  1  0
  9 10  1  0
 10 11  1  0
 11 12  1  0
 11 13  1  0
  9 14  2  0
 14  4  1  0
  1 15  1  0
  1 16  1  0
  1 17  1  0
  2 18  1  0
  2 19  1  0
  3 20  1  0
 10 21  1  0
 11 22  1  0
 12 23  1  0
 12 24  1  0
 12 25  1  0
 13 26  1  0
 13 27  1  0
 13 28  1  0
M  END
>  <Energy>  (1) 
-240.76348770844496

>  <Real charge>  (1) 
0

>  <Mult>  (1) 
1

$$$$
mol_236 511
     RDKit          3D

 28 28  0  0  0  0  0  0  0  0999 V2000
    4.0710   -0.3134   -1.4730 C   0  0  0  0  0  0  0  0  0  0  0  0
    2.7220   -0.4942   -0.7948 C   0  0  0  0  0  0  0  0  0  0  0  0
    2.6311    0.4053    0.3416 N   0  0  0  0  0  0  0  0  0  0  0  0
    1.4653    0.2872    1.0888 C   0  0  0  0  0  0  0  0  0  0  0  0
    1.5926    0.5125    2.3818 N   0  0  0  0  0  0  0  0  0  0  0  0
    0.4518    0.4082    3.0455 C   0  0  0  0  0  0  0  0  0  0  0  0
    0.5402    0.6928    4.7296 Cl  0  0  0  0  0  0  0  0  0  0  0  0
   -0.7486    0.1105    2.5728 N   0  0  0  0  0  0  0  0  0  0  0  0
   -0.7587   -0.1031    1.2716 C   0  0  0  0  0  0  0  0  0  0  0  0
   -1.9895   -0.4347    0.7302 N   0  0  0  0  0  0  0  0  0  0  0  0
   -2.2557   -0.0324   -0.6450 C   0  0  0  0  0  0  0  0  0  0  0  0
   -3.4807   -0.8052   -1.1358 C   0  0  0  0  0  0  0  0  0  0  0  0
   -2.5158    1.4715   -0.7309 C   0  0  0  0  0  0  0  0  0  0  0  0
    0.3176   -0.0253    0.4971 N   0  0  0  0  0  0  0  0  0  0  0  0
    4.1554   -0.9789   -2.3377 H   0  0  0  0  0  0  0  0  0  0  0  0
    4.2013    0.7175   -1.8190 H   0  0  0  0  0  0  0  0  0  0  0  0
    4.8913   -0.5416   -0.7841 H   0  0  0  0  0  0  0  0  0  0  0  0
    2.6203   -1.5373   -0.4715 H   0  0  0  0  0  0  0  0  0  0  0  0
    1.9330   -0.2800   -1.5256 H   0  0  0  0  0  0  0  0  0  0  0  0
    3.4034    0.3579    0.9986 H   0  0  0  0  0  0  0  0  0  0  0  0
   -2.7037   -0.1936    1.4090 H   0  0  0  0  0  0  0  0  0  0  0  0
   -1.4181   -0.2976   -1.3022 H   0  0  0  0  0  0  0  0  0  0  0  0
   -3.3037   -1.8853   -1.0844 H   0  0  0  0  0  0  0  0  0  0  0  0
   -3.7130   -0.5499   -2.1750 H   0  0  0  0  0  0  0  0  0  0  0  0
   -4.3638   -0.5859   -0.5249 H   0  0  0  0  0  0  0  0  0  0  0  0
   -2.7627    1.7649   -1.7567 H   0  0  0  0  0  0  0  0  0  0  0  0
   -1.6354    2.0459   -0.4238 H   0  0  0  0  0  0  0  0  0  0  0  0
   -3.3471    1.7700   -0.0822 H   0  0  0  0  0  0  0  0  0  0  0  0
  1  2  1  0
  2  3  1  0
  3  4  1  0
  4  5  2  0
  5  6  1  0
  6  7  1  0
  6  8  2  0
  8  9  1  0
  9 10  1  0
 10 11  1  0
 11 12  1  0
 11 13  1  0
  9 14  2  0
 14  4  1  0
  1 15  1  0
  1 16  1  0
  1 17  1  0
  2 18  1  0
  2 19  1  0
  3 20  1  0
 10 21  1  0
 11 22  1  0
 12 23  1  0
 12 24  1  0
 12 25  1  0
 13 26  1  0
 13 27  1  0
 13 28  1  0
M  END
>  <Energy>  (2) 
-240.74179845499617

>  <Real charge>  (2) 
0

>  <Mult>  (2) 
1

$$$$
mol_236 234
     RDKit          3D

 28 28  0  0  0  0  0  0  0  0999 V2000
    4.7808    0.5801    0.4383 C   0  0  0  0  0  0  0  0  0  0  0  0
    3.3239    0.5602    0.0029 C   0  0  0  0  0  0  0  0  0  0  0  0
    2.8386   -0.8084    0.0106 N   0  0  0  0  0  0  0  0  0  0  0  0
    1.5330   -0.9696   -0.4372 C   0  0  0  0  0  0  0  0  0  0  0  0
    1.2882   -2.0936   -1.0818 N   0  0  0  0  0  0  0  0  0  0  0  0
    0.0281   -2.2097   -1.4711 C   0  0  0  0  0  0  0  0  0  0  0  0
   -0.3649   -3.6478   -2.3087 Cl  0  0  0  0  0  0  0  0  0  0  0  0
   -0.9656   -1.3548   -1.2938 N   0  0  0  0  0  0  0  0  0  0  0  0
   -0.6082   -0.2633   -0.6444 C   0  0  0  0  0  0  0  0  0  0  0  0
   -1.5299    0.7384   -0.3904 N   0  0  0  0  0  0  0  0  0  0  0  0
   -2.9243    0.3538   -0.2129 C   0  0  0  0  0  0  0  0  0  0  0  0
   -3.7808    1.6163   -0.3178 C   0  0  0  0  0  0  0  0  0  0  0  0
   -3.1354   -0.3112    1.1472 C   0  0  0  0  0  0  0  0  0  0  0  0
    0.6214   -0.0312   -0.2007 N   0  0  0  0  0  0  0  0  0  0  0  0
    4.8954    0.1636    1.4447 H   0  0  0  0  0  0  0  0  0  0  0  0
    5.4027   -0.0117   -0.2418 H   0  0  0  0  0  0  0  0  0  0  0  0
    5.1626    1.6057    0.4458 H   0  0  0  0  0  0  0  0  0  0  0  0
    3.2441    0.9931   -1.0017 H   0  0  0  0  0  0  0  0  0  0  0  0
    2.7446    1.1830    0.6949 H   0  0  0  0  0  0  0  0  0  0  0  0
    3.4058   -1.4743   -0.5047 H   0  0  0  0  0  0  0  0  0  0  0  0
   -1.1401    1.3393    0.3281 H   0  0  0  0  0  0  0  0  0  0  0  0
   -3.2489   -0.3280   -1.0087 H   0  0  0  0  0  0  0  0  0  0  0  0
   -3.5134    2.3471    0.4538 H   0  0  0  0  0  0  0  0  0  0  0  0
   -4.8438    1.3774   -0.2075 H   0  0  0  0  0  0  0  0  0  0  0  0
   -3.6420    2.0989   -1.2917 H   0  0  0  0  0  0  0  0  0  0  0  0
   -2.5626   -1.2409    1.2289 H   0  0  0  0  0  0  0  0  0  0  0  0
   -4.1916   -0.5573    1.2994 H   0  0  0  0  0  0  0  0  0  0  0  0
   -2.8177    0.3449    1.9655 H   0  0  0  0  0  0  0  0  0  0  0  0
  1  2  1  0
  2  3  1  0
  3  4  1  0
  4  5  2  0
  5  6  1  0
  6  7  1  0
  6  8  2  0
  8  9  1  0
  9 10  1  0
 10 11  1  0
 11 12  1  0
 11 13  1  0
  9 14  2  0
 14  4  1  0
  1 15  1  0
  1 16  1  0
  1 17  1  0
  2 18  1  0
  2 19  1  0
  3 20  1  0
 10 21  1  0
 11 22  1  0
 12 23  1  0
 12 24  1  0
 12 25  1  0
 13 26  1  0
 13 27  1  0
 13 28  1  0
M  END
>  <Energy>  (3) 
-240.74144360373197

>  <Real charge>  (3) 
0

>  <Mult>  (3) 
1

$$$$
mol_236 445
     RDKit          3D

 28 28  0  0  0  0  0  0  0  0999 V2000
    4.5107    1.1150    0.8901 C   0  0  0  0  0  0  0  0  0  0  0  0
    3.6051   -0.0406    0.4942 C   0  0  0  0  0  0  0  0  0  0  0  0
    2.2967    0.4758    0.1337 N   0  0  0  0  0  0  0  0  0  0  0  0
    1.3493   -0.4893   -0.1852 C   0  0  0  0  0  0  0  0  0  0  0  0
    1.7105   -1.6133   -0.7749 N   0  0  0  0  0  0  0  0  0  0  0  0
    0.6945   -2.4209   -1.0307 C   0  0  0  0  0  0  0  0  0  0  0  0
    1.0891   -3.8972   -1.7982 Cl  0  0  0  0  0  0  0  0  0  0  0  0
   -0.5888   -2.2327   -0.7652 N   0  0  0  0  0  0  0  0  0  0  0  0
   -0.8355   -1.0823   -0.1695 C   0  0  0  0  0  0  0  0  0  0  0  0
   -2.1636   -0.8460    0.1437 N   0  0  0  0  0  0  0  0  0  0  0  0
   -2.6274    0.5356    0.1377 C   0  0  0  0  0  0  0  0  0  0  0  0
   -2.7732    1.0537   -1.2930 C   0  0  0  0  0  0  0  0  0  0  0  0
   -3.9779    0.5849    0.8534 C   0  0  0  0  0  0  0  0  0  0  0  0
    0.0977   -0.1866    0.1369 N   0  0  0  0  0  0  0  0  0  0  0  0
    4.6202    1.8280    0.0659 H   0  0  0  0  0  0  0  0  0  0  0  0
    5.5052    0.7456    1.1586 H   0  0  0  0  0  0  0  0  0  0  0  0
    4.1032    1.6573    1.7500 H   0  0  0  0  0  0  0  0  0  0  0  0
    3.5263   -0.7391    1.3362 H   0  0  0  0  0  0  0  0  0  0  0  0
    4.0621   -0.5683   -0.3514 H   0  0  0  0  0  0  0  0  0  0  0  0
    1.8634    1.0852    0.8202 H   0  0  0  0  0  0  0  0  0  0  0  0
   -2.7288   -1.5050   -0.3812 H   0  0  0  0  0  0  0  0  0  0  0  0
   -1.9395    1.1843    0.6940 H   0  0  0  0  0  0  0  0  0  0  0  0
   -3.4537    0.4243   -1.8776 H   0  0  0  0  0  0  0  0  0  0  0  0
   -3.1669    2.0756   -1.2978 H   0  0  0  0  0  0  0  0  0  0  0  0
   -1.8089    1.0667   -1.8118 H   0  0  0  0  0  0  0  0  0  0  0  0
   -4.7221   -0.0411    0.3482 H   0  0  0  0  0  0  0  0  0  0  0  0
   -4.3630    1.6094    0.8908 H   0  0  0  0  0  0  0  0  0  0  0  0
   -3.8846    0.2211    1.8827 H   0  0  0  0  0  0  0  0  0  0  0  0
  1  2  1  0
  2  3  1  0
  3  4  1  0
  4  5  2  0
  5  6  1  0
  6  7  1  0
  6  8  2  0
  8  9  1  0
  9 10  1  0
 10 11  1  0
 11 12  1  0
 11 13  1  0
  9 14  2  0
 14  4  1  0
  1 15  1  0
  1 16  1  0
  1 17  1  0
  2 18  1  0
  2 19  1  0
  3 20  1  0
 10 21  1  0
 11 22  1  0
 12 23  1  0
 12 24  1  0
 12 25  1  0
 13 26  1  0
 13 27  1  0
 13 28  1  0
M  END
>  <Energy>  (4) 
-240.7353738287125

>  <Real charge>  (4) 
0

>  <Mult>  (4) 
1

$$$$
mol_236 28
     RDKit          3D

 28 28  0  0  0  0  0  0  0  0999 V2000
    5.0132    0.7076    0.3673 C   0  0  0  0  0  0  0  0  0  0  0  0
    3.7789    0.3428   -0.4423 C   0  0  0  0  0  0  0  0  0  0  0  0
    2.7380   -0.1275    0.4533 N   0  0  0  0  0  0  0  0  0  0  0  0
    1.5279   -0.4410   -0.1514 C   0  0  0  0  0  0  0  0  0  0  0  0
    1.4999   -0.9214   -1.3804 N   0  0  0  0  0  0  0  0  0  0  0  0
    0.2785   -1.1926   -1.8098 C   0  0  0  0  0  0  0  0  0  0  0  0
    0.1652   -1.8056   -3.4020 Cl  0  0  0  0  0  0  0  0  0  0  0  0
   -0.8685   -1.0214   -1.1737 N   0  0  0  0  0  0  0  0  0  0  0  0
   -0.7251   -0.5341    0.0441 C   0  0  0  0  0  0  0  0  0  0  0  0
   -1.8308   -0.3142    0.8464 N   0  0  0  0  0  0  0  0  0  0  0  0
   -3.0980    0.0060    0.2040 C   0  0  0  0  0  0  0  0  0  0  0  0
   -3.0934    1.4432   -0.3161 C   0  0  0  0  0  0  0  0  0  0  0  0
   -4.2123   -0.1755    1.2353 C   0  0  0  0  0  0  0  0  0  0  0  0
    0.4461   -0.2211    0.5880 N   0  0  0  0  0  0  0  0  0  0  0  0
    5.8125    1.0582   -0.2929 H   0  0  0  0  0  0  0  0  0  0  0  0
    4.7906    1.5024    1.0872 H   0  0  0  0  0  0  0  0  0  0  0  0
    5.3849   -0.1570    0.9274 H   0  0  0  0  0  0  0  0  0  0  0  0
    3.4403    1.2258   -0.9977 H   0  0  0  0  0  0  0  0  0  0  0  0
    4.0526   -0.4357   -1.1644 H   0  0  0  0  0  0  0  0  0  0  0  0
    2.5264    0.4756    1.2411 H   0  0  0  0  0  0  0  0  0  0  0  0
   -1.5517    0.2838    1.6158 H   0  0  0  0  0  0  0  0  0  0  0  0
   -3.3045   -0.6828   -0.6246 H   0  0  0  0  0  0  0  0  0  0  0  0
   -2.3281    1.5850   -1.0865 H   0  0  0  0  0  0  0  0  0  0  0  0
   -4.0619    1.6994   -0.7585 H   0  0  0  0  0  0  0  0  0  0  0  0
   -2.8874    2.1578    0.4888 H   0  0  0  0  0  0  0  0  0  0  0  0
   -5.1914    0.0384    0.7942 H   0  0  0  0  0  0  0  0  0  0  0  0
   -4.0735    0.4884    2.0961 H   0  0  0  0  0  0  0  0  0  0  0  0
   -4.2284   -1.2045    1.6114 H   0  0  0  0  0  0  0  0  0  0  0  0
  1  2  1  0
  2  3  1  0
  3  4  1  0
  4  5  2  0
  5  6  1  0
  6  7  1  0
  6  8  2  0
  8  9  1  0
  9 10  1  0
 10 11  1  0
 11 12  1  0
 11 13  1  0
  9 14  2  0
 14  4  1  0
  1 15  1  0
  1 16  1  0
  1 17  1  0
  2 18  1  0
  2 19  1  0
  3 20  1  0
 10 21  1  0
 11 22  1  0
 12 23  1  0
 12 24  1  0
 12 25  1  0
 13 26  1  0
 13 27  1  0
 13 28  1  0
M  END
>  <Energy>  (5) 
-240.3701899629496

>  <Real charge>  (5) 
0

>  <Mult>  (5) 
1

$$$$
mol_236 190
     RDKit          3D

 28 28  0  0  0  0  0  0  0  0999 V2000
    4.6568   -0.0173    1.0641 C   0  0  0  0  0  0  0  0  0  0  0  0
    3.1623   -0.0429    0.7848 C   0  0  0  0  0  0  0  0  0  0  0  0
    2.9413   -0.0626   -0.6491 N   0  0  0  0  0  0  0  0  0  0  0  0
    1.6132   -0.1467   -1.0460 C   0  0  0  0  0  0  0  0  0  0  0  0
    1.3974   -0.8033   -2.1691 N   0  0  0  0  0  0  0  0  0  0  0  0
    0.1208   -0.8385   -2.5178 C   0  0  0  0  0  0  0  0  0  0  0  0
   -0.2360   -1.6866   -3.9592 Cl  0  0  0  0  0  0  0  0  0  0  0  0
   -0.9170   -0.3254   -1.8781 N   0  0  0  0  0  0  0  0  0  0  0  0
   -0.5879    0.3074   -0.7681 C   0  0  0  0  0  0  0  0  0  0  0  0
   -1.5587    0.9166    0.0071 N   0  0  0  0  0  0  0  0  0  0  0  0
   -2.8997    0.3487    0.0058 C   0  0  0  0  0  0  0  0  0  0  0  0
   -3.8537    1.3826    0.6051 C   0  0  0  0  0  0  0  0  0  0  0  0
   -2.9422   -0.9413    0.8247 C   0  0  0  0  0  0  0  0  0  0  0  0
    0.6548    0.4104   -0.3116 N   0  0  0  0  0  0  0  0  0  0  0  0
    4.8430    0.0051    2.1423 H   0  0  0  0  0  0  0  0  0  0  0  0
    5.1247    0.8659    0.6165 H   0  0  0  0  0  0  0  0  0  0  0  0
    5.1495   -0.9034    0.6500 H   0  0  0  0  0  0  0  0  0  0  0  0
    2.7076    0.8465    1.2370 H   0  0  0  0  0  0  0  0  0  0  0  0
    2.7247   -0.9318    1.2551 H   0  0  0  0  0  0  0  0  0  0  0  0
    3.4496   -0.7736   -1.1647 H   0  0  0  0  0  0  0  0  0  0  0  0
   -1.1560    1.1204    0.9149 H   0  0  0  0  0  0  0  0  0  0  0  0
   -3.2397    0.1445   -1.0171 H   0  0  0  0  0  0  0  0  0  0  0  0
   -4.8824    1.0075    0.6111 H   0  0  0  0  0  0  0  0  0  0  0  0
   -3.8354    2.3103    0.0224 H   0  0  0  0  0  0  0  0  0  0  0  0
   -3.5762    1.6341    1.6350 H   0  0  0  0  0  0  0  0  0  0  0  0
   -3.9598   -1.3442    0.8623 H   0  0  0  0  0  0  0  0  0  0  0  0
   -2.6052   -0.7716    1.8536 H   0  0  0  0  0  0  0  0  0  0  0  0
   -2.2959   -1.7105    0.3889 H   0  0  0  0  0  0  0  0  0  0  0  0
  1  2  1  0
  2  3  1  0
  3  4  1  0
  4  5  2  0
  5  6  1  0
  6  7  1  0
  6  8  2  0
  8  9  1  0
  9 10  1  0
 10 11  1  0
 11 12  1  0
 11 13  1  0
  9 14  2  0
 14  4  1  0
  1 15  1  0
  1 16  1  0
  1 17  1  0
  2 18  1  0
  2 19  1  0
  3 20  1  0
 10 21  1  0
 11 22  1  0
 12 23  1  0
 12 24  1  0
 12 25  1  0
 13 26  1  0
 13 27  1  0
 13 28  1  0
M  END
>  <Energy>  (6) 
-240.29726169188322

>  <Real charge>  (6) 
0

>  <Mult>  (6) 
1

$$$$
mol_236 436
     RDKit          3D

 28 28  0  0  0  0  0  0  0  0999 V2000
    4.5963   -0.3131   -0.7161 C   0  0  0  0  0  0  0  0  0  0  0  0
    3.5029   -0.2232    0.3367 C   0  0  0  0  0  0  0  0  0  0  0  0
    2.3641    0.4895   -0.2124 N   0  0  0  0  0  0  0  0  0  0  0  0
    1.2635    0.5909    0.6284 C   0  0  0  0  0  0  0  0  0  0  0  0
    1.4264    0.6808    1.9349 N   0  0  0  0  0  0  0  0  0  0  0  0
    0.2876    0.7940    2.5984 C   0  0  0  0  0  0  0  0  0  0  0  0
    0.4226    0.9037    4.2996 Cl  0  0  0  0  0  0  0  0  0  0  0  0
   -0.9447    0.8047    2.1149 N   0  0  0  0  0  0  0  0  0  0  0  0
   -0.9912    0.7056    0.8006 C   0  0  0  0  0  0  0  0  0  0  0  0
   -2.2590    0.7301    0.2470 N   0  0  0  0  0  0  0  0  0  0  0  0
   -2.4819    0.0150   -1.0014 C   0  0  0  0  0  0  0  0  0  0  0  0
   -3.8070    0.4957   -1.5941 C   0  0  0  0  0  0  0  0  0  0  0  0
   -2.5316   -1.4935   -0.7600 C   0  0  0  0  0  0  0  0  0  0  0  0
    0.0813    0.5868    0.0242 N   0  0  0  0  0  0  0  0  0  0  0  0
    4.2452   -0.8517   -1.6028 H   0  0  0  0  0  0  0  0  0  0  0  0
    4.9168    0.6844   -1.0354 H   0  0  0  0  0  0  0  0  0  0  0  0
    5.4674   -0.8420   -0.3172 H   0  0  0  0  0  0  0  0  0  0  0  0
    3.2139   -1.2364    0.6411 H   0  0  0  0  0  0  0  0  0  0  0  0
    3.9042    0.2997    1.2130 H   0  0  0  0  0  0  0  0  0  0  0  0
    2.0196    0.1526   -1.1053 H   0  0  0  0  0  0  0  0  0  0  0  0
   -2.9331    0.5658    0.9866 H   0  0  0  0  0  0  0  0  0  0  0  0
   -1.6956    0.2433   -1.7315 H   0  0  0  0  0  0  0  0  0  0  0  0
   -4.6449    0.2955   -0.9167 H   0  0  0  0  0  0  0  0  0  0  0  0
   -3.7808    1.5758   -1.7765 H   0  0  0  0  0  0  0  0  0  0  0  0
   -4.0124   -0.0031   -2.5471 H   0  0  0  0  0  0  0  0  0  0  0  0
   -3.3074   -1.7555   -0.0318 H   0  0  0  0  0  0  0  0  0  0  0  0
   -1.5772   -1.8661   -0.3731 H   0  0  0  0  0  0  0  0  0  0  0  0
   -2.7446   -2.0291   -1.6912 H   0  0  0  0  0  0  0  0  0  0  0  0
  1  2  1  0
  2  3  1  0
  3  4  1  0
  4  5  2  0
  5  6  1  0
  6  7  1  0
  6  8  2  0
  8  9  1  0
  9 10  1  0
 10 11  1  0
 11 12  1  0
 11 13  1  0
  9 14  2  0
 14  4  1  0
  1 15  1  0
  1 16  1  0
  1 17  1  0
  2 18  1  0
  2 19  1  0
  3 20  1  0
 10 21  1  0
 11 22  1  0
 12 23  1  0
 12 24  1  0
 12 25  1  0
 13 26  1  0
 13 27  1  0
 13 28  1  0
M  END
>  <Energy>  (7) 
-240.295315362771

>  <Real charge>  (7) 
0

>  <Mult>  (7) 
1

$$$$
mol_236 321
     RDKit          3D

 28 28  0  0  0  0  0  0  0  0999 V2000
    3.9715    1.5137    0.2797 C   0  0  0  0  0  0  0  0  0  0  0  0
    2.5931    0.8726    0.2481 C   0  0  0  0  0  0  0  0  0  0  0  0
    2.6596   -0.3749   -0.4900 N   0  0  0  0  0  0  0  0  0  0  0  0
    1.4742   -1.0963   -0.5450 C   0  0  0  0  0  0  0  0  0  0  0  0
    1.6080   -2.4073   -0.5886 N   0  0  0  0  0  0  0  0  0  0  0  0
    0.4522   -3.0490   -0.6591 C   0  0  0  0  0  0  0  0  0  0  0  0
    0.5490   -4.7559   -0.7080 Cl  0  0  0  0  0  0  0  0  0  0  0  0
   -0.7698   -2.5399   -0.6688 N   0  0  0  0  0  0  0  0  0  0  0  0
   -0.7869   -1.2222   -0.6200 C   0  0  0  0  0  0  0  0  0  0  0  0
   -2.0422   -0.6412   -0.6443 N   0  0  0  0  0  0  0  0  0  0  0  0
   -2.2203    0.6467    0.0106 C   0  0  0  0  0  0  0  0  0  0  0  0
   -3.5443    1.2437   -0.4676 C   0  0  0  0  0  0  0  0  0  0  0  0
   -2.2362    0.4845    1.5304 C   0  0  0  0  0  0  0  0  0  0  0  0
    0.3038   -0.4672   -0.5471 N   0  0  0  0  0  0  0  0  0  0  0  0
    4.3341    1.7151   -0.7339 H   0  0  0  0  0  0  0  0  0  0  0  0
    4.6987    0.8588    0.7715 H   0  0  0  0  0  0  0  0  0  0  0  0
    3.9392    2.4608    0.8270 H   0  0  0  0  0  0  0  0  0  0  0  0
    2.2563    0.6952    1.2767 H   0  0  0  0  0  0  0  0  0  0  0  0
    1.8945    1.5707   -0.2284 H   0  0  0  0  0  0  0  0  0  0  0  0
    3.3871   -1.0213   -0.2027 H   0  0  0  0  0  0  0  0  0  0  0  0
   -2.7302   -1.3553   -0.4327 H   0  0  0  0  0  0  0  0  0  0  0  0
   -1.4248    1.3463   -0.2745 H   0  0  0  0  0  0  0  0  0  0  0  0
   -3.7165    2.2255   -0.0141 H   0  0  0  0  0  0  0  0  0  0  0  0
   -3.5420    1.3697   -1.5560 H   0  0  0  0  0  0  0  0  0  0  0  0
   -4.3911    0.5966   -0.2120 H   0  0  0  0  0  0  0  0  0  0  0  0
   -3.0196   -0.2127    1.8487 H   0  0  0  0  0  0  0  0  0  0  0  0
   -2.4168    1.4463    2.0218 H   0  0  0  0  0  0  0  0  0  0  0  0
   -1.2806    0.0972    1.8993 H   0  0  0  0  0  0  0  0  0  0  0  0
  1  2  1  0
  2  3  1  0
  3  4  1  0
  4  5  2  0
  5  6  1  0
  6  7  1  0
  6  8  2  0
  8  9  1  0
  9 10  1  0
 10 11  1  0
 11 12  1  0
 11 13  1  0
  9 14  2  0
 14  4  1  0
  1 15  1  0
  1 16  1  0
  1 17  1  0
  2 18  1  0
  2 19  1  0
  3 20  1  0
 10 21  1  0
 11 22  1  0
 12 23  1  0
 12 24  1  0
 12 25  1  0
 13 26  1  0
 13 27  1  0
 13 28  1  0
M  END
>  <Energy>  (8) 
-240.28195739328729

>  <Real charge>  (8) 
0

>  <Mult>  (8) 
1

$$$$
mol_236 4
     RDKit          3D

 28 28  0  0  0  0  0  0  0  0999 V2000
    3.9992    1.3833    0.3068 C   0  0  0  0  0  0  0  0  0  0  0  0
    2.6627    0.7893   -0.1095 C   0  0  0  0  0  0  0  0  0  0  0  0
    2.5580   -0.5653    0.4036 N   0  0  0  0  0  0  0  0  0  0  0  0
    1.4046   -1.2442    0.0296 C   0  0  0  0  0  0  0  0  0  0  0  0
    1.5382   -2.5450   -0.1390 N   0  0  0  0  0  0  0  0  0  0  0  0
    0.4080   -3.1473   -0.4747 C   0  0  0  0  0  0  0  0  0  0  0  0
    0.5043   -4.8394   -0.7037 Cl  0  0  0  0  0  0  0  0  0  0  0  0
   -0.7872   -2.6073   -0.6567 N   0  0  0  0  0  0  0  0  0  0  0  0
   -0.8040   -1.3016   -0.4731 C   0  0  0  0  0  0  0  0  0  0  0  0
   -2.0333   -0.6877   -0.6739 N   0  0  0  0  0  0  0  0  0  0  0  0
   -2.3182    0.4898    0.1396 C   0  0  0  0  0  0  0  0  0  0  0  0
   -3.8224    0.5424    0.4178 C   0  0  0  0  0  0  0  0  0  0  0  0
   -1.8895    1.7546   -0.6047 C   0  0  0  0  0  0  0  0  0  0  0  0
    0.2610   -0.5870   -0.1285 N   0  0  0  0  0  0  0  0  0  0  0  0
    4.0971    1.4033    1.3974 H   0  0  0  0  0  0  0  0  0  0  0  0
    4.0933    2.4083   -0.0650 H   0  0  0  0  0  0  0  0  0  0  0  0
    4.8324    0.7960   -0.0936 H   0  0  0  0  0  0  0  0  0  0  0  0
    2.5934    0.7947   -1.2041 H   0  0  0  0  0  0  0  0  0  0  0  0
    1.8607    1.4208    0.2910 H   0  0  0  0  0  0  0  0  0  0  0  0
    3.3387   -1.1763    0.1855 H   0  0  0  0  0  0  0  0  0  0  0  0
   -2.7281   -1.4273   -0.6412 H   0  0  0  0  0  0  0  0  0  0  0  0
   -1.8070    0.4396    1.1099 H   0  0  0  0  0  0  0  0  0  0  0  0
   -4.0776    1.4191    1.0222 H   0  0  0  0  0  0  0  0  0  0  0  0
   -4.4001    0.5881   -0.5123 H   0  0  0  0  0  0  0  0  0  0  0  0
   -4.1469   -0.3499    0.9647 H   0  0  0  0  0  0  0  0  0  0  0  0
   -2.1325    2.6492   -0.0216 H   0  0  0  0  0  0  0  0  0  0  0  0
   -0.8117    1.7653   -0.7944 H   0  0  0  0  0  0  0  0  0  0  0  0
   -2.3932    1.8344   -1.5748 H   0  0  0  0  0  0  0  0  0  0  0  0
  1  2  1  0
  2  3  1  0
  3  4  1  0
  4  5  2  0
  5  6  1  0
  6  7  1  0
  6  8  2  0
  8  9  1  0
  9 10  1  0
 10 11  1  0
 11 12  1  0
 11 13  1  0
  9 14  2  0
 14  4  1  0
  1 15  1  0
  1 16  1  0
  1 17  1  0
  2 18  1  0
  2 19  1  0
  3 20  1  0
 10 21  1  0
 11 22  1  0
 12 23  1  0
 12 24  1  0
 12 25  1  0
 13 26  1  0
 13 27  1  0
 13 28  1  0
M  END
>  <Energy>  (9) 
-239.99723519770157

>  <Real charge>  (9) 
0

>  <Mult>  (9) 
1

$$$$
mol_236 417
     RDKit          3D

 28 28  0  0  0  0  0  0  0  0999 V2000
    5.1571    0.3547    0.2497 C   0  0  0  0  0  0  0  0  0  0  0  0
    3.9134   -0.4470   -0.1007 C   0  0  0  0  0  0  0  0  0  0  0  0
    2.7727    0.4478   -0.1853 N   0  0  0  0  0  0  0  0  0  0  0  0
    1.5541   -0.1705   -0.4366 C   0  0  0  0  0  0  0  0  0  0  0  0
    1.4972   -1.2594   -1.1801 N   0  0  0  0  0  0  0  0  0  0  0  0
    0.2675   -1.7182   -1.3444 C   0  0  0  0  0  0  0  0  0  0  0  0
    0.1164   -3.1261   -2.3028 Cl  0  0  0  0  0  0  0  0  0  0  0  0
   -0.8602   -1.2255   -0.8595 N   0  0  0  0  0  0  0  0  0  0  0  0
   -0.6876   -0.1444   -0.1234 C   0  0  0  0  0  0  0  0  0  0  0  0
   -1.7693    0.4872    0.4752 N   0  0  0  0  0  0  0  0  0  0  0  0
   -3.0489    0.4117   -0.2222 C   0  0  0  0  0  0  0  0  0  0  0  0
   -3.8431   -0.7965    0.2739 C   0  0  0  0  0  0  0  0  0  0  0  0
   -3.8365    1.6941    0.0565 C   0  0  0  0  0  0  0  0  0  0  0  0
    0.4945    0.4153    0.1103 N   0  0  0  0  0  0  0  0  0  0  0  0
    5.3564    1.1207   -0.5073 H   0  0  0  0  0  0  0  0  0  0  0  0
    5.0407    0.8597    1.2145 H   0  0  0  0  0  0  0  0  0  0  0  0
    6.0299   -0.3027    0.3108 H   0  0  0  0  0  0  0  0  0  0  0  0
    3.7496   -1.2099    0.6701 H   0  0  0  0  0  0  0  0  0  0  0  0
    4.0829   -0.9535   -1.0583 H   0  0  0  0  0  0  0  0  0  0  0  0
    2.6302    1.0510    0.6184 H   0  0  0  0  0  0  0  0  0  0  0  0
   -1.4514    1.4200    0.7189 H   0  0  0  0  0  0  0  0  0  0  0  0
   -2.9087    0.3425   -1.3089 H   0  0  0  0  0  0  0  0  0  0  0  0
   -3.3220   -1.7356    0.0629 H   0  0  0  0  0  0  0  0  0  0  0  0
   -4.8227   -0.8439   -0.2135 H   0  0  0  0  0  0  0  0  0  0  0  0
   -4.0047   -0.7482    1.3568 H   0  0  0  0  0  0  0  0  0  0  0  0
   -4.0093    1.8325    1.1298 H   0  0  0  0  0  0  0  0  0  0  0  0
   -3.2895    2.5716   -0.3059 H   0  0  0  0  0  0  0  0  0  0  0  0
   -4.8090    1.6724   -0.4463 H   0  0  0  0  0  0  0  0  0  0  0  0
  1  2  1  0
  2  3  1  0
  3  4  1  0
  4  5  2  0
  5  6  1  0
  6  7  1  0
  6  8  2  0
  8  9  1  0
  9 10  1  0
 10 11  1  0
 11 12  1  0
 11 13  1  0
  9 14  2  0
 14  4  1  0
  1 15  1  0
  1 16  1  0
  1 17  1  0
  2 18  1  0
  2 19  1  0
  3 20  1  0
 10 21  1  0
 11 22  1  0
 12 23  1  0
 12 24  1  0
 12 25  1  0
 13 26  1  0
 13 27  1  0
 13 28  1  0
M  END
>  <Energy>  (10) 
-239.93308016257876

>  <Real charge>  (10) 
0

>  <Mult>  (10) 
1

$$$$
mol_236 5
     RDKit          3D

 28 28  0  0  0  0  0  0  0  0999 V2000
    4.8688    0.4029   -0.3632 C   0  0  0  0  0  0  0  0  0  0  0  0
    3.3700    0.1496   -0.4065 C   0  0  0  0  0  0  0  0  0  0  0  0
    2.9249   -0.3247    0.8919 N   0  0  0  0  0  0  0  0  0  0  0  0
    1.5783   -0.6604    0.9627 C   0  0  0  0  0  0  0  0  0  0  0  0
    1.2841   -1.6629    1.7672 N   0  0  0  0  0  0  0  0  0  0  0  0
   -0.0113   -1.9314    1.8161 C   0  0  0  0  0  0  0  0  0  0  0  0
   -0.4692   -3.2173    2.8461 Cl  0  0  0  0  0  0  0  0  0  0  0  0
   -0.9967   -1.3305    1.1697 N   0  0  0  0  0  0  0  0  0  0  0  0
   -0.5898   -0.3501    0.3865 C   0  0  0  0  0  0  0  0  0  0  0  0
   -1.4964    0.3728   -0.3772 N   0  0  0  0  0  0  0  0  0  0  0  0
   -2.8369    0.5420    0.1738 C   0  0  0  0  0  0  0  0  0  0  0  0
   -3.3890    1.8940   -0.2842 C   0  0  0  0  0  0  0  0  0  0  0  0
   -3.7500   -0.5796   -0.3212 C   0  0  0  0  0  0  0  0  0  0  0  0
    0.6792    0.0179    0.2560 N   0  0  0  0  0  0  0  0  0  0  0  0
    5.1187    1.1501    0.3976 H   0  0  0  0  0  0  0  0  0  0  0  0
    5.4160   -0.5150   -0.1235 H   0  0  0  0  0  0  0  0  0  0  0  0
    5.2220    0.7686   -1.3323 H   0  0  0  0  0  0  0  0  0  0  0  0
    2.8656    1.0860   -0.6731 H   0  0  0  0  0  0  0  0  0  0  0  0
    3.1543   -0.5931   -1.1841 H   0  0  0  0  0  0  0  0  0  0  0  0
    3.4404   -1.1151    1.2664 H   0  0  0  0  0  0  0  0  0  0  0  0
   -1.0163    1.2266   -0.6447 H   0  0  0  0  0  0  0  0  0  0  0  0
   -2.8203    0.5493    1.2715 H   0  0  0  0  0  0  0  0  0  0  0  0
   -4.3998    2.0554    0.1049 H   0  0  0  0  0  0  0  0  0  0  0  0
   -2.7554    2.7130    0.0742 H   0  0  0  0  0  0  0  0  0  0  0  0
   -3.4285    1.9608   -1.3773 H   0  0  0  0  0  0  0  0  0  0  0  0
   -3.7912   -0.6041   -1.4162 H   0  0  0  0  0  0  0  0  0  0  0  0
   -4.7700   -0.4438    0.0537 H   0  0  0  0  0  0  0  0  0  0  0  0
   -3.4012   -1.5611    0.0147 H   0  0  0  0  0  0  0  0  0  0  0  0
  1  2  1  0
  2  3  1  0
  3  4  1  0
  4  5  2  0
  5  6  1  0
  6  7  1  0
  6  8  2  0
  8  9  1  0
  9 10  1  0
 10 11  1  0
 11 12  1  0
 11 13  1  0
  9 14  2  0
 14  4  1  0
  1 15  1  0
  1 16  1  0
  1 17  1  0
  2 18  1  0
  2 19  1  0
  3 20  1  0
 10 21  1  0
 11 22  1  0
 12 23  1  0
 12 24  1  0
 12 25  1  0
 13 26  1  0
 13 27  1  0
 13 28  1  0
M  END
>  <Energy>  (11) 
-239.91829341976813

>  <Real charge>  (11) 
0

>  <Mult>  (11) 
1

$$$$
mol_236 30
     RDKit          3D

 28 28  0  0  0  0  0  0  0  0999 V2000
    4.4346    0.1615    1.4317 C   0  0  0  0  0  0  0  0  0  0  0  0
    3.5756   -0.2352    0.2413 C   0  0  0  0  0  0  0  0  0  0  0  0
    2.2524    0.3444    0.3892 N   0  0  0  0  0  0  0  0  0  0  0  0
    1.3439    0.0004   -0.6043 C   0  0  0  0  0  0  0  0  0  0  0  0
    1.7508   -0.2034   -1.8429 N   0  0  0  0  0  0  0  0  0  0  0  0
    0.7670   -0.5034   -2.6747 C   0  0  0  0  0  0  0  0  0  0  0  0
    1.2209   -0.7767   -4.3006 Cl  0  0  0  0  0  0  0  0  0  0  0  0
   -0.5245   -0.6214   -2.4077 N   0  0  0  0  0  0  0  0  0  0  0  0
   -0.8181   -0.4068   -1.1400 C   0  0  0  0  0  0  0  0  0  0  0  0
   -2.1604   -0.5395   -0.8104 N   0  0  0  0  0  0  0  0  0  0  0  0
   -2.6624    0.3201    0.2566 C   0  0  0  0  0  0  0  0  0  0  0  0
   -4.1243    0.6655   -0.0374 C   0  0  0  0  0  0  0  0  0  0  0  0
   -2.5662   -0.4049    1.5989 C   0  0  0  0  0  0  0  0  0  0  0  0
    0.0794   -0.0926   -0.2115 N   0  0  0  0  0  0  0  0  0  0  0  0
    3.9999   -0.2020    2.3690 H   0  0  0  0  0  0  0  0  0  0  0  0
    4.5252    1.2505    1.5048 H   0  0  0  0  0  0  0  0  0  0  0  0
    5.4396   -0.2607    1.3344 H   0  0  0  0  0  0  0  0  0  0  0  0
    4.0590    0.1265   -0.6739 H   0  0  0  0  0  0  0  0  0  0  0  0
    3.5150   -1.3291    0.1916 H   0  0  0  0  0  0  0  0  0  0  0  0
    1.7910    0.1588    1.2743 H   0  0  0  0  0  0  0  0  0  0  0  0
   -2.6718   -0.5009   -1.6868 H   0  0  0  0  0  0  0  0  0  0  0  0
   -2.1056    1.2650    0.3051 H   0  0  0  0  0  0  0  0  0  0  0  0
   -4.2124    1.1997   -0.9900 H   0  0  0  0  0  0  0  0  0  0  0  0
   -4.5399    1.3061    0.7475 H   0  0  0  0  0  0  0  0  0  0  0  0
   -4.7428   -0.2366   -0.1059 H   0  0  0  0  0  0  0  0  0  0  0  0
   -3.1218   -1.3495    1.5809 H   0  0  0  0  0  0  0  0  0  0  0  0
   -2.9751    0.2140    2.4046 H   0  0  0  0  0  0  0  0  0  0  0  0
   -1.5288   -0.6410    1.8560 H   0  0  0  0  0  0  0  0  0  0  0  0
  1  2  1  0
  2  3  1  0
  3  4  1  0
  4  5  2  0
  5  6  1  0
  6  7  1  0
  6  8  2  0
  8  9  1  0
  9 10  1  0
 10 11  1  0
 11 12  1  0
 11 13  1  0
  9 14  2  0
 14  4  1  0
  1 15  1  0
  1 16  1  0
  1 17  1  0
  2 18  1  0
  2 19  1  0
  3 20  1  0
 10 21  1  0
 11 22  1  0
 12 23  1  0
 12 24  1  0
 12 25  1  0
 13 26  1  0
 13 27  1  0
 13 28  1  0
M  END
>  <Energy>  (12) 
-239.90685754389546

>  <Real charge>  (12) 
0

>  <Mult>  (12) 
1

$$$$
