mol_209 1
     RDKit          3D

 12 12  0  0  0  0  0  0  0  0999 V2000
   -2.1004   -1.6972   -0.0168 F   0  0  0  0  0  0  0  0  0  0  0  0
   -1.0584   -0.8552   -0.0085 C   0  0  0  0  0  0  0  0  0  0  0  0
   -1.2866    0.5165   -0.0277 C   0  0  0  0  0  0  0  0  0  0  0  0
   -0.2020    1.3932   -0.0190 C   0  0  0  0  0  0  0  0  0  0  0  0
    1.1003    0.8891    0.0088 C   0  0  0  0  0  0  0  0  0  0  0  0
    1.3195   -0.4903    0.0279 C   0  0  0  0  0  0  0  0  0  0  0  0
    0.2346   -1.3665    0.0192 C   0  0  0  0  0  0  0  0  0  0  0  0
   -2.3045    0.8916   -0.0492 H   0  0  0  0  0  0  0  0  0  0  0  0
   -0.3701    2.4670   -0.0338 H   0  0  0  0  0  0  0  0  0  0  0  0
    1.9462    1.5726    0.0156 H   0  0  0  0  0  0  0  0  0  0  0  0
    2.3339   -0.8802    0.0495 H   0  0  0  0  0  0  0  0  0  0  0  0
    0.3875   -2.4406    0.0338 H   0  0  0  0  0  0  0  0  0  0  0  0
  1  2  1  0
  2  3  2  0
  3  4  1  0
  4  5  2  0
  5  6  1  0
  6  7  2  0
  7  2  1  0
  3  8  1  0
  4  9  1  0
  5 10  1  0
  6 11  1  0
  7 12  1  0
M  END
>  <Energy>  (1) 
14.059383511007363

>  <Real charge>  (1) 
0

>  <Mult>  (1) 
1

$$$$
