mol_272 42
     RDKit          3D

 16 16  0  0  0  0  0  0  0  0999 V2000
    2.7208   -0.1209    0.2445 C   0  0  0  0  0  0  0  0  0  0  0  0
    1.6046   -1.0003    0.3017 O   0  0  0  0  0  0  0  0  0  0  0  0
    0.3696   -0.4472    0.1062 C   0  0  0  0  0  0  0  0  0  0  0  0
    0.1033    0.9004   -0.1441 C   0  0  0  0  0  0  0  0  0  0  0  0
   -1.2152    1.3335   -0.3261 C   0  0  0  0  0  0  0  0  0  0  0  0
   -2.2649    0.4196   -0.2576 C   0  0  0  0  0  0  0  0  0  0  0  0
   -3.8834    0.9572   -0.4820 Cl  0  0  0  0  0  0  0  0  0  0  0  0
   -2.0093   -0.9255   -0.0085 C   0  0  0  0  0  0  0  0  0  0  0  0
   -0.6924   -1.3547    0.1727 C   0  0  0  0  0  0  0  0  0  0  0  0
    3.6233   -0.7145    0.4194 H   0  0  0  0  0  0  0  0  0  0  0  0
    2.6648    0.6395    1.0304 H   0  0  0  0  0  0  0  0  0  0  0  0
    2.8110    0.3385   -0.7454 H   0  0  0  0  0  0  0  0  0  0  0  0
    0.8954    1.6393   -0.2042 H   0  0  0  0  0  0  0  0  0  0  0  0
   -1.4141    2.3841   -0.5206 H   0  0  0  0  0  0  0  0  0  0  0  0
   -2.8228   -1.6433    0.0462 H   0  0  0  0  0  0  0  0  0  0  0  0
   -0.4907   -2.4055    0.3674 H   0  0  0  0  0  0  0  0  0  0  0  0
  1  2  1  0
  2  3  1  0
  3  4  2  0
  4  5  1  0
  5  6  2  0
  6  7  1  0
  6  8  1  0
  8  9  2  0
  9  3  1  0
  1 10  1  0
  1 11  1  0
  1 12  1  0
  4 13  1  0
  5 14  1  0
  8 15  1  0
  9 16  1  0
M  END
>  <Energy>  (1) 
18.08671773113695

>  <Real charge>  (1) 
0

>  <Mult>  (1) 
1

$$$$
