mol_466 20
     RDKit          3D

 29 30  0  0  0  0  0  0  0  0999 V2000
   -1.4666    0.4181   -2.2382 O   0  0  0  0  0  0  0  0  0  0  0  0
   -0.9921    0.8702   -1.1968 C   0  0  0  0  0  0  0  0  0  0  0  0
   -0.7126    2.2071   -1.1078 N   0  0  0  0  0  0  0  0  0  0  0  0
   -0.7199    2.9033    0.0579 C   0  0  0  0  0  0  0  0  0  0  0  0
   -0.9133    4.1144    0.0772 O   0  0  0  0  0  0  0  0  0  0  0  0
   -0.6090    2.1867    1.2057 N   0  0  0  0  0  0  0  0  0  0  0  0
   -0.8805    0.8482    1.2958 C   0  0  0  0  0  0  0  0  0  0  0  0
   -1.2604    0.3774    2.3673 O   0  0  0  0  0  0  0  0  0  0  0  0
   -0.6251    0.0189    0.0281 C   0  0  0  0  0  0  0  0  0  0  0  0
   -1.4672   -1.2876    0.0543 C   0  0  0  0  0  0  0  0  0  0  0  0
   -2.9803   -1.0847    0.1238 C   0  0  0  0  0  0  0  0  0  0  0  0
    0.8679   -0.4108   -0.0425 C   0  0  0  0  0  0  0  0  0  0  0  0
    1.6128   -0.6560    1.1277 C   0  0  0  0  0  0  0  0  0  0  0  0
    2.9496   -1.0581    1.0626 C   0  0  0  0  0  0  0  0  0  0  0  0
    3.5659   -1.2417   -0.1706 C   0  0  0  0  0  0  0  0  0  0  0  0
    2.8421   -1.0369   -1.3403 C   0  0  0  0  0  0  0  0  0  0  0  0
    1.5051   -0.6348   -1.2786 C   0  0  0  0  0  0  0  0  0  0  0  0
   -0.9566    2.7534   -1.9231 H   0  0  0  0  0  0  0  0  0  0  0  0
   -0.7788    2.7183    2.0491 H   0  0  0  0  0  0  0  0  0  0  0  0
   -1.1725   -1.9052    0.9137 H   0  0  0  0  0  0  0  0  0  0  0  0
   -1.2509   -1.8897   -0.8387 H   0  0  0  0  0  0  0  0  0  0  0  0
   -3.3591   -0.5335   -0.7409 H   0  0  0  0  0  0  0  0  0  0  0  0
   -3.4818   -2.0583    0.1377 H   0  0  0  0  0  0  0  0  0  0  0  0
   -3.2799   -0.5491    1.0286 H   0  0  0  0  0  0  0  0  0  0  0  0
    1.1662   -0.5553    2.1158 H   0  0  0  0  0  0  0  0  0  0  0  0
    3.5063   -1.2380    1.9792 H   0  0  0  0  0  0  0  0  0  0  0  0
    4.6042   -1.5590   -0.2199 H   0  0  0  0  0  0  0  0  0  0  0  0
    3.3145   -1.2002   -2.3061 H   0  0  0  0  0  0  0  0  0  0  0  0
    0.9720   -0.5170   -2.2210 H   0  0  0  0  0  0  0  0  0  0  0  0
  1  2  2  0
  2  3  1  0
  3  4  1  0
  4  5  2  0
  4  6  1  0
  6  7  1  0
  7  8  2  0
  7  9  1  0
  9 10  1  0
 10 11  1  0
  9 12  1  0
 12 13  2  0
 13 14  1  0
 14 15  2  0
 15 16  1  0
 16 17  2  0
  9  2  1  0
 17 12  1  0
  3 18  1  0
  6 19  1  0
 10 20  1  0
 10 21  1  0
 11 22  1  0
 11 23  1  0
 11 24  1  0
 13 25  1  0
 14 26  1  0
 15 27  1  0
 16 28  1  0
 17 29  1  0
M  END
>  <Energy>  (1) 
-76.1614944355287

>  <Real charge>  (1) 
0

>  <Mult>  (1) 
1

$$$$
mol_466 270
     RDKit          3D

 29 30  0  0  0  0  0  0  0  0999 V2000
   -1.9286    0.6605    2.0025 O   0  0  0  0  0  0  0  0  0  0  0  0
   -1.5808   -0.1406    1.1382 C   0  0  0  0  0  0  0  0  0  0  0  0
   -1.8280   -1.4768    1.3197 N   0  0  0  0  0  0  0  0  0  0  0  0
   -2.1287   -2.3135    0.2922 C   0  0  0  0  0  0  0  0  0  0  0  0
   -2.8200   -3.3121    0.4650 O   0  0  0  0  0  0  0  0  0  0  0  0
   -1.7334   -1.9334   -0.9503 N   0  0  0  0  0  0  0  0  0  0  0  0
   -1.4891   -0.6253   -1.2744 C   0  0  0  0  0  0  0  0  0  0  0  0
   -1.7583   -0.2147   -2.4019 O   0  0  0  0  0  0  0  0  0  0  0  0
   -0.8465    0.2288   -0.1612 C   0  0  0  0  0  0  0  0  0  0  0  0
   -1.0676    1.7317   -0.5040 C   0  0  0  0  0  0  0  0  0  0  0  0
   -0.3215    2.7435    0.3643 C   0  0  0  0  0  0  0  0  0  0  0  0
    0.6676   -0.0806   -0.0933 C   0  0  0  0  0  0  0  0  0  0  0  0
    1.4289   -0.1571   -1.2766 C   0  0  0  0  0  0  0  0  0  0  0  0
    2.7990   -0.4243   -1.2370 C   0  0  0  0  0  0  0  0  0  0  0  0
    3.4394   -0.6063   -0.0158 C   0  0  0  0  0  0  0  0  0  0  0  0
    2.7126   -0.5106    1.1669 C   0  0  0  0  0  0  0  0  0  0  0  0
    1.3413   -0.2438    1.1312 C   0  0  0  0  0  0  0  0  0  0  0  0
   -2.3084   -1.7045    2.1804 H   0  0  0  0  0  0  0  0  0  0  0  0
   -2.1445   -2.4836   -1.6929 H   0  0  0  0  0  0  0  0  0  0  0  0
   -2.1413    1.9574   -0.4489 H   0  0  0  0  0  0  0  0  0  0  0  0
   -0.7755    1.9279   -1.5444 H   0  0  0  0  0  0  0  0  0  0  0  0
   -0.6190    3.7591    0.0819 H   0  0  0  0  0  0  0  0  0  0  0  0
    0.7611    2.6738    0.2225 H   0  0  0  0  0  0  0  0  0  0  0  0
   -0.5388    2.6210    1.4277 H   0  0  0  0  0  0  0  0  0  0  0  0
    0.9671    0.0002   -2.2511 H   0  0  0  0  0  0  0  0  0  0  0  0
    3.3672   -0.4825   -2.1623 H   0  0  0  0  0  0  0  0  0  0  0  0
    4.5066   -0.8100    0.0151 H   0  0  0  0  0  0  0  0  0  0  0  0
    3.2159   -0.6344    2.1230 H   0  0  0  0  0  0  0  0  0  0  0  0
    0.8231   -0.1496    2.0837 H   0  0  0  0  0  0  0  0  0  0  0  0
  1  2  2  0
  2  3  1  0
  3  4  1  0
  4  5  2  0
  4  6  1  0
  6  7  1  0
  7  8  2  0
  7  9  1  0
  9 10  1  0
 10 11  1  0
  9 12  1  0
 12 13  2  0
 13 14  1  0
 14 15  2  0
 15 16  1  0
 16 17  2  0
  9  2  1  0
 17 12  1  0
  3 18  1  0
  6 19  1  0
 10 20  1  0
 10 21  1  0
 11 22  1  0
 11 23  1  0
 11 24  1  0
 13 25  1  0
 14 26  1  0
 15 27  1  0
 16 28  1  0
 17 29  1  0
M  END
>  <Energy>  (2) 
-75.27751631072654

>  <Real charge>  (2) 
0

>  <Mult>  (2) 
1

$$$$
