mol_830 151
     RDKit          3D

 32 32  0  0  0  0  0  0  0  0999 V2000
    3.7268   -0.8077    1.4386 C   0  0  0  0  0  0  0  0  0  0  0  0
    3.2244   -1.1699    0.1245 N   0  0  0  0  0  0  0  0  0  0  0  0
    4.1479   -1.8462   -0.7662 C   0  0  0  0  0  0  0  0  0  0  0  0
    2.0513   -0.6417   -0.4022 C   0  0  0  0  0  0  0  0  0  0  0  0
    1.6903   -0.8221   -1.5615 O   0  0  0  0  0  0  0  0  0  0  0  0
    1.3522    0.1091    0.5148 O   0  0  0  0  0  0  0  0  0  0  0  0
    0.1267    0.6436    0.0625 C   0  0  0  0  0  0  0  0  0  0  0  0
   -0.0224    1.9711   -0.0151 C   0  0  0  0  0  0  0  0  0  0  0  0
   -1.3137    2.5499   -0.4468 C   0  0  0  0  0  0  0  0  0  0  0  0
   -1.4256    3.7713   -0.5279 O   0  0  0  0  0  0  0  0  0  0  0  0
   -2.4426    1.6134   -0.8282 C   0  0  0  0  0  0  0  0  0  0  0  0
   -2.3902    0.2746   -0.0669 C   0  0  0  0  0  0  0  0  0  0  0  0
   -2.7481    0.4884    1.4192 C   0  0  0  0  0  0  0  0  0  0  0  0
   -3.4256   -0.6914   -0.6707 C   0  0  0  0  0  0  0  0  0  0  0  0
   -0.9798   -0.3441   -0.2048 C   0  0  0  0  0  0  0  0  0  0  0  0
    4.2367   -1.6695    1.8792 H   0  0  0  0  0  0  0  0  0  0  0  0
    4.4343    0.0188    1.3245 H   0  0  0  0  0  0  0  0  0  0  0  0
    2.9243   -0.4988    2.1125 H   0  0  0  0  0  0  0  0  0  0  0  0
    4.9510   -1.1518   -1.0304 H   0  0  0  0  0  0  0  0  0  0  0  0
    4.5687   -2.7162   -0.2538 H   0  0  0  0  0  0  0  0  0  0  0  0
    3.6554   -2.1831   -1.6823 H   0  0  0  0  0  0  0  0  0  0  0  0
    0.7738    2.6666    0.2170 H   0  0  0  0  0  0  0  0  0  0  0  0
   -2.3725    1.4494   -1.9107 H   0  0  0  0  0  0  0  0  0  0  0  0
   -3.3926    2.1232   -0.6276 H   0  0  0  0  0  0  0  0  0  0  0  0
   -2.7324   -0.4613    1.9662 H   0  0  0  0  0  0  0  0  0  0  0  0
   -3.7536    0.9122    1.5230 H   0  0  0  0  0  0  0  0  0  0  0  0
   -2.0532    1.1677    1.9229 H   0  0  0  0  0  0  0  0  0  0  0  0
   -4.4402   -0.2851   -0.5893 H   0  0  0  0  0  0  0  0  0  0  0  0
   -3.2265   -0.8749   -1.7326 H   0  0  0  0  0  0  0  0  0  0  0  0
   -3.4097   -1.6593   -0.1573 H   0  0  0  0  0  0  0  0  0  0  0  0
   -0.8847   -1.1952    0.4817 H   0  0  0  0  0  0  0  0  0  0  0  0
   -0.8508   -0.7408   -1.2195 H   0  0  0  0  0  0  0  0  0  0  0  0
  1  2  1  0
  2  3  1  0
  2  4  1  0
  4  5  2  0
  4  6  1  0
  6  7  1  0
  7  8  2  0
  8  9  1  0
  9 10  2  0
  9 11  1  0
 11 12  1  0
 12 13  1  0
 12 14  1  0
 12 15  1  0
 15  7  1  0
  1 16  1  0
  1 17  1  0
  1 18  1  0
  3 19  1  0
  3 20  1  0
  3 21  1  0
  8 22  1  0
 11 23  1  0
 11 24  1  0
 13 25  1  0
 13 26  1  0
 13 27  1  0
 14 28  1  0
 14 29  1  0
 14 30  1  0
 15 31  1  0
 15 32  1  0
M  END
>  <Energy>  (1) 
-4.2332800786547375

>  <Real charge>  (1) 
0

>  <Mult>  (1) 
1

$$$$
mol_830 176
     RDKit          3D

 32 32  0  0  0  0  0  0  0  0999 V2000
    4.3833    0.8735   -0.8844 C   0  0  0  0  0  0  0  0  0  0  0  0
    3.4347    0.2930    0.0468 N   0  0  0  0  0  0  0  0  0  0  0  0
    3.7997    0.3135    1.4528 C   0  0  0  0  0  0  0  0  0  0  0  0
    2.1552   -0.0158   -0.3984 C   0  0  0  0  0  0  0  0  0  0  0  0
    1.8074    0.0778   -1.5719 O   0  0  0  0  0  0  0  0  0  0  0  0
    1.3287   -0.4342    0.6190 O   0  0  0  0  0  0  0  0  0  0  0  0
   -0.0017   -0.7262    0.2485 C   0  0  0  0  0  0  0  0  0  0  0  0
   -0.4587   -1.9776    0.3740 C   0  0  0  0  0  0  0  0  0  0  0  0
   -1.8628   -2.2938    0.0311 C   0  0  0  0  0  0  0  0  0  0  0  0
   -2.2597   -3.4522    0.1383 O   0  0  0  0  0  0  0  0  0  0  0  0
   -2.7534   -1.1858   -0.4941 C   0  0  0  0  0  0  0  0  0  0  0  0
   -2.3659    0.2014    0.0539 C   0  0  0  0  0  0  0  0  0  0  0  0
   -2.7159    0.3025    1.5538 C   0  0  0  0  0  0  0  0  0  0  0  0
   -3.1661    1.2825   -0.6947 C   0  0  0  0  0  0  0  0  0  0  0  0
   -0.8551    0.4428   -0.1711 C   0  0  0  0  0  0  0  0  0  0  0  0
    4.0766    0.7286   -1.9236 H   0  0  0  0  0  0  0  0  0  0  0  0
    5.3607    0.4047   -0.7381 H   0  0  0  0  0  0  0  0  0  0  0  0
    4.4582    1.9464   -0.6837 H   0  0  0  0  0  0  0  0  0  0  0  0
    4.8188   -0.0685    1.5641 H   0  0  0  0  0  0  0  0  0  0  0  0
    3.7557    1.3473    1.8077 H   0  0  0  0  0  0  0  0  0  0  0  0
    3.1318   -0.2997    2.0618 H   0  0  0  0  0  0  0  0  0  0  0  0
    0.1607   -2.7981    0.7127 H   0  0  0  0  0  0  0  0  0  0  0  0
   -3.7893   -1.4216   -0.2220 H   0  0  0  0  0  0  0  0  0  0  0  0
   -2.6814   -1.2068   -1.5886 H   0  0  0  0  0  0  0  0  0  0  0  0
   -2.4616    1.2926    1.9492 H   0  0  0  0  0  0  0  0  0  0  0  0
   -3.7887    0.1478    1.7170 H   0  0  0  0  0  0  0  0  0  0  0  0
   -2.1829   -0.4381    2.1582 H   0  0  0  0  0  0  0  0  0  0  0  0
   -2.9638    1.2532   -1.7713 H   0  0  0  0  0  0  0  0  0  0  0  0
   -2.9083    2.2851   -0.3351 H   0  0  0  0  0  0  0  0  0  0  0  0
   -4.2443    1.1435   -0.5563 H   0  0  0  0  0  0  0  0  0  0  0  0
   -0.6699    0.6418   -1.2340 H   0  0  0  0  0  0  0  0  0  0  0  0
   -0.5421    1.3404    0.3776 H   0  0  0  0  0  0  0  0  0  0  0  0
  1  2  1  0
  2  3  1  0
  2  4  1  0
  4  5  2  0
  4  6  1  0
  6  7  1  0
  7  8  2  0
  8  9  1  0
  9 10  2  0
  9 11  1  0
 11 12  1  0
 12 13  1  0
 12 14  1  0
 12 15  1  0
 15  7  1  0
  1 16  1  0
  1 17  1  0
  1 18  1  0
  3 19  1  0
  3 20  1  0
  3 21  1  0
  8 22  1  0
 11 23  1  0
 11 24  1  0
 13 25  1  0
 13 26  1  0
 13 27  1  0
 14 28  1  0
 14 29  1  0
 14 30  1  0
 15 31  1  0
 15 32  1  0
M  END
>  <Energy>  (2) 
-4.166340934821536

>  <Real charge>  (2) 
0

>  <Mult>  (2) 
1

$$$$
mol_830 121
     RDKit          3D

 32 32  0  0  0  0  0  0  0  0999 V2000
    4.0457   -0.9248    0.1093 C   0  0  0  0  0  0  0  0  0  0  0  0
    3.3043    0.2795   -0.2225 N   0  0  0  0  0  0  0  0  0  0  0  0
    4.0673    1.3937   -0.7515 C   0  0  0  0  0  0  0  0  0  0  0  0
    1.9197    0.2987   -0.3440 C   0  0  0  0  0  0  0  0  0  0  0  0
    1.2913    1.2663   -0.7641 O   0  0  0  0  0  0  0  0  0  0  0  0
    1.3374   -0.8844    0.0532 O   0  0  0  0  0  0  0  0  0  0  0  0
   -0.0674   -0.9089   -0.0486 C   0  0  0  0  0  0  0  0  0  0  0  0
   -0.6525   -1.5690   -1.0551 C   0  0  0  0  0  0  0  0  0  0  0  0
   -2.1278   -1.6392   -1.1395 C   0  0  0  0  0  0  0  0  0  0  0  0
   -2.6449   -2.2695   -2.0599 O   0  0  0  0  0  0  0  0  0  0  0  0
   -2.9564   -0.9987   -0.0435 C   0  0  0  0  0  0  0  0  0  0  0  0
   -2.2551    0.2001    0.6231 C   0  0  0  0  0  0  0  0  0  0  0  0
   -2.2209    1.4021   -0.3445 C   0  0  0  0  0  0  0  0  0  0  0  0
   -3.0482    0.6190    1.8742 C   0  0  0  0  0  0  0  0  0  0  0  0
   -0.8230   -0.2013    1.0441 C   0  0  0  0  0  0  0  0  0  0  0  0
    3.4437   -1.6296    0.6875 H   0  0  0  0  0  0  0  0  0  0  0  0
    4.9257   -0.6545    0.7003 H   0  0  0  0  0  0  0  0  0  0  0  0
    4.3618   -1.4058   -0.8210 H   0  0  0  0  0  0  0  0  0  0  0  0
    4.4634    1.1123   -1.7318 H   0  0  0  0  0  0  0  0  0  0  0  0
    4.8947    1.6171   -0.0717 H   0  0  0  0  0  0  0  0  0  0  0  0
    3.4523    2.2907   -0.8623 H   0  0  0  0  0  0  0  0  0  0  0  0
   -0.0922   -2.0787   -1.8282 H   0  0  0  0  0  0  0  0  0  0  0  0
   -3.9118   -0.6815   -0.4786 H   0  0  0  0  0  0  0  0  0  0  0  0
   -3.1686   -1.7825    0.6944 H   0  0  0  0  0  0  0  0  0  0  0  0
   -1.7290    2.2648    0.1195 H   0  0  0  0  0  0  0  0  0  0  0  0
   -1.6833    1.1766   -1.2709 H   0  0  0  0  0  0  0  0  0  0  0  0
   -3.2352    1.7108   -0.6222 H   0  0  0  0  0  0  0  0  0  0  0  0
   -2.5748    1.4707    2.3755 H   0  0  0  0  0  0  0  0  0  0  0  0
   -4.0723    0.9097    1.6144 H   0  0  0  0  0  0  0  0  0  0  0  0
   -3.1099   -0.2008    2.5987 H   0  0  0  0  0  0  0  0  0  0  0  0
   -0.2762    0.6916    1.3711 H   0  0  0  0  0  0  0  0  0  0  0  0
   -0.8577   -0.8745    1.9109 H   0  0  0  0  0  0  0  0  0  0  0  0
  1  2  1  0
  2  3  1  0
  2  4  1  0
  4  5  2  0
  4  6  1  0
  6  7  1  0
  7  8  2  0
  8  9  1  0
  9 10  2  0
  9 11  1  0
 11 12  1  0
 12 13  1  0
 12 14  1  0
 12 15  1  0
 15  7  1  0
  1 16  1  0
  1 17  1  0
  1 18  1  0
  3 19  1  0
  3 20  1  0
  3 21  1  0
  8 22  1  0
 11 23  1  0
 11 24  1  0
 13 25  1  0
 13 26  1  0
 13 27  1  0
 14 28  1  0
 14 29  1  0
 14 30  1  0
 15 31  1  0
 15 32  1  0
M  END
>  <Energy>  (3) 
-4.120412840815174

>  <Real charge>  (3) 
0

>  <Mult>  (3) 
1

$$$$
mol_830 283
     RDKit          3D

 32 32  0  0  0  0  0  0  0  0999 V2000
    3.9380   -1.2444   -0.0888 C   0  0  0  0  0  0  0  0  0  0  0  0
    3.3355    0.0770   -0.0495 N   0  0  0  0  0  0  0  0  0  0  0  0
    4.1601    1.1861   -0.4894 C   0  0  0  0  0  0  0  0  0  0  0  0
    1.9747    0.2827    0.1417 C   0  0  0  0  0  0  0  0  0  0  0  0
    1.4393    1.3845    0.0588 O   0  0  0  0  0  0  0  0  0  0  0  0
    1.2982   -0.8825    0.4263 O   0  0  0  0  0  0  0  0  0  0  0  0
   -0.0873   -0.7221    0.6242 C   0  0  0  0  0  0  0  0  0  0  0  0
   -0.5912   -0.7411    1.8640 C   0  0  0  0  0  0  0  0  0  0  0  0
   -2.0507   -0.6222    2.0748 C   0  0  0  0  0  0  0  0  0  0  0  0
   -2.4954   -0.6654    3.2202 O   0  0  0  0  0  0  0  0  0  0  0  0
   -2.9612   -0.5312    0.8661 C   0  0  0  0  0  0  0  0  0  0  0  0
   -2.2802    0.1105   -0.3578 C   0  0  0  0  0  0  0  0  0  0  0  0
   -2.0864    1.6241   -0.1264 C   0  0  0  0  0  0  0  0  0  0  0  0
   -3.1824   -0.0704   -1.5919 C   0  0  0  0  0  0  0  0  0  0  0  0
   -0.9218   -0.5789   -0.6201 C   0  0  0  0  0  0  0  0  0  0  0  0
    4.0546   -1.5415   -1.1352 H   0  0  0  0  0  0  0  0  0  0  0  0
    3.3297   -1.9909    0.4268 H   0  0  0  0  0  0  0  0  0  0  0  0
    4.9198   -1.2051    0.3920 H   0  0  0  0  0  0  0  0  0  0  0  0
    5.0987    1.1789    0.0725 H   0  0  0  0  0  0  0  0  0  0  0  0
    4.3710    1.0634   -1.5559 H   0  0  0  0  0  0  0  0  0  0  0  0
    3.6660    2.1489   -0.3349 H   0  0  0  0  0  0  0  0  0  0  0  0
    0.0248   -0.8523    2.7470 H   0  0  0  0  0  0  0  0  0  0  0  0
   -3.2878   -1.5530    0.6360 H   0  0  0  0  0  0  0  0  0  0  0  0
   -3.8485    0.0477    1.1496 H   0  0  0  0  0  0  0  0  0  0  0  0
   -3.0496    2.1233    0.0295 H   0  0  0  0  0  0  0  0  0  0  0  0
   -1.4639    1.8359    0.7487 H   0  0  0  0  0  0  0  0  0  0  0  0
   -1.6072    2.0948   -0.9925 H   0  0  0  0  0  0  0  0  0  0  0  0
   -4.1581    0.4054   -1.4417 H   0  0  0  0  0  0  0  0  0  0  0  0
   -3.3596   -1.1310   -1.8027 H   0  0  0  0  0  0  0  0  0  0  0  0
   -2.7262    0.3742   -2.4836 H   0  0  0  0  0  0  0  0  0  0  0  0
   -1.0806   -1.5856   -1.0289 H   0  0  0  0  0  0  0  0  0  0  0  0
   -0.3721   -0.0198   -1.3871 H   0  0  0  0  0  0  0  0  0  0  0  0
  1  2  1  0
  2  3  1  0
  2  4  1  0
  4  5  2  0
  4  6  1  0
  6  7  1  0
  7  8  2  0
  8  9  1  0
  9 10  2  0
  9 11  1  0
 11 12  1  0
 12 13  1  0
 12 14  1  0
 12 15  1  0
 15  7  1  0
  1 16  1  0
  1 17  1  0
  1 18  1  0
  3 19  1  0
  3 20  1  0
  3 21  1  0
  8 22  1  0
 11 23  1  0
 11 24  1  0
 13 25  1  0
 13 26  1  0
 13 27  1  0
 14 28  1  0
 14 29  1  0
 14 30  1  0
 15 31  1  0
 15 32  1  0
M  END
>  <Energy>  (4) 
-4.05600420509819

>  <Real charge>  (4) 
0

>  <Mult>  (4) 
1

$$$$
