mol_904 199
     RDKit          3D

 17 16  0  0  0  0  0  0  0  0999 V2000
    3.0414   -0.3290   -0.2664 C   0  0  0  0  0  0  0  0  0  0  0  0
    1.7765    0.4382   -0.5986 C   0  0  0  0  0  0  0  0  0  0  0  0
    0.6630   -0.2739   -0.0457 O   0  0  0  0  0  0  0  0  0  0  0  0
   -0.5457    0.3145   -0.2750 C   0  0  0  0  0  0  0  0  0  0  0  0
   -0.7142    1.3565   -0.8918 O   0  0  0  0  0  0  0  0  0  0  0  0
   -1.6356   -0.5220    0.3512 C   0  0  0  0  0  0  0  0  0  0  0  0
   -3.0128    0.0792    0.1322 C   0  0  0  0  0  0  0  0  0  0  0  0
    2.9970   -1.3425   -0.6785 H   0  0  0  0  0  0  0  0  0  0  0  0
    3.1570   -0.4309    0.8178 H   0  0  0  0  0  0  0  0  0  0  0  0
    3.9225    0.1780   -0.6695 H   0  0  0  0  0  0  0  0  0  0  0  0
    1.6643    0.5133   -1.6860 H   0  0  0  0  0  0  0  0  0  0  0  0
    1.8272    1.4419   -0.1618 H   0  0  0  0  0  0  0  0  0  0  0  0
   -1.6021   -1.5229   -0.0918 H   0  0  0  0  0  0  0  0  0  0  0  0
   -1.4398   -0.5982    1.4260 H   0  0  0  0  0  0  0  0  0  0  0  0
   -3.7806   -0.5476    0.5961 H   0  0  0  0  0  0  0  0  0  0  0  0
   -3.0785    1.0812    0.5691 H   0  0  0  0  0  0  0  0  0  0  0  0
   -3.2394    0.1643   -0.9358 H   0  0  0  0  0  0  0  0  0  0  0  0
  1  2  1  0
  2  3  1  0
  3  4  1  0
  4  5  2  0
  4  6  1  0
  6  7  1  0
  1  8  1  0
  1  9  1  0
  1 10  1  0
  2 11  1  0
  2 12  1  0
  6 13  1  0
  6 14  1  0
  7 15  1  0
  7 16  1  0
  7 17  1  0
M  END
>  <Energy>  (1) 
-12.438193516600128

>  <Real charge>  (1) 
0

>  <Mult>  (1) 
1

$$$$
mol_904 36
     RDKit          3D

 17 16  0  0  0  0  0  0  0  0999 V2000
   -2.5956    0.3429   -0.6685 C   0  0  0  0  0  0  0  0  0  0  0  0
   -1.9562   -0.5175    0.4050 C   0  0  0  0  0  0  0  0  0  0  0  0
   -0.6234   -0.8832    0.0181 O   0  0  0  0  0  0  0  0  0  0  0  0
    0.3551    0.0093    0.3440 C   0  0  0  0  0  0  0  0  0  0  0  0
    0.1780    1.0719    0.9214 O   0  0  0  0  0  0  0  0  0  0  0  0
    1.6887   -0.5221   -0.1244 C   0  0  0  0  0  0  0  0  0  0  0  0
    2.8282    0.4263    0.2048 C   0  0  0  0  0  0  0  0  0  0  0  0
   -3.6319    0.5784   -0.4106 H   0  0  0  0  0  0  0  0  0  0  0  0
   -2.5802   -0.1729   -1.6343 H   0  0  0  0  0  0  0  0  0  0  0  0
   -2.0464    1.2806   -0.7997 H   0  0  0  0  0  0  0  0  0  0  0  0
   -1.9652   -0.0163    1.3798 H   0  0  0  0  0  0  0  0  0  0  0  0
   -2.5230   -1.4476    0.5170 H   0  0  0  0  0  0  0  0  0  0  0  0
    1.8678   -1.4868    0.3620 H   0  0  0  0  0  0  0  0  0  0  0  0
    1.6416   -0.6697   -1.2085 H   0  0  0  0  0  0  0  0  0  0  0  0
    2.6791    1.4006   -0.2724 H   0  0  0  0  0  0  0  0  0  0  0  0
    2.9035    0.5907    1.2848 H   0  0  0  0  0  0  0  0  0  0  0  0
    3.7798    0.0153   -0.1461 H   0  0  0  0  0  0  0  0  0  0  0  0
  1  2  1  0
  2  3  1  0
  3  4  1  0
  4  5  2  0
  4  6  1  0
  6  7  1  0
  1  8  1  0
  1  9  1  0
  1 10  1  0
  2 11  1  0
  2 12  1  0
  6 13  1  0
  6 14  1  0
  7 15  1  0
  7 16  1  0
  7 17  1  0
M  END
>  <Energy>  (2) 
-12.000265288815939

>  <Real charge>  (2) 
0

>  <Mult>  (2) 
1

$$$$
mol_904 201
     RDKit          3D

 17 16  0  0  0  0  0  0  0  0999 V2000
   -2.7685    0.4418    0.3889 C   0  0  0  0  0  0  0  0  0  0  0  0
   -1.6585   -0.4568   -0.1205 C   0  0  0  0  0  0  0  0  0  0  0  0
   -0.4525   -0.1145    0.5728 O   0  0  0  0  0  0  0  0  0  0  0  0
    0.6309   -0.8515    0.2032 C   0  0  0  0  0  0  0  0  0  0  0  0
    0.6312   -1.7371   -0.6407 O   0  0  0  0  0  0  0  0  0  0  0  0
    1.8500   -0.4138    0.9707 C   0  0  0  0  0  0  0  0  0  0  0  0
    2.4297    0.8586    0.3868 C   0  0  0  0  0  0  0  0  0  0  0  0
   -2.9025    0.3149    1.4682 H   0  0  0  0  0  0  0  0  0  0  0  0
   -2.5198    1.4948    0.2206 H   0  0  0  0  0  0  0  0  0  0  0  0
   -3.7137    0.2173   -0.1133 H   0  0  0  0  0  0  0  0  0  0  0  0
   -1.9121   -1.5049    0.0741 H   0  0  0  0  0  0  0  0  0  0  0  0
   -1.5228   -0.3028   -1.1969 H   0  0  0  0  0  0  0  0  0  0  0  0
    2.5884   -1.2222    0.9312 H   0  0  0  0  0  0  0  0  0  0  0  0
    1.5837   -0.2811    2.0250 H   0  0  0  0  0  0  0  0  0  0  0  0
    2.6920    0.7221   -0.6677 H   0  0  0  0  0  0  0  0  0  0  0  0
    1.7117    1.6833    0.4460 H   0  0  0  0  0  0  0  0  0  0  0  0
    3.3328    1.1519    0.9305 H   0  0  0  0  0  0  0  0  0  0  0  0
  1  2  1  0
  2  3  1  0
  3  4  1  0
  4  5  2  0
  4  6  1  0
  6  7  1  0
  1  8  1  0
  1  9  1  0
  1 10  1  0
  2 11  1  0
  2 12  1  0
  6 13  1  0
  6 14  1  0
  7 15  1  0
  7 16  1  0
  7 17  1  0
M  END
>  <Energy>  (3) 
-11.750430037551261

>  <Real charge>  (3) 
0

>  <Mult>  (3) 
1

$$$$
