mol_156 106
     RDKit          3D

 17 16  0  0  0  0  0  0  0  0999 V2000
   -2.8886   -0.0977    0.3434 C   0  0  0  0  0  0  0  0  0  0  0  0
   -1.5568   -0.2177   -0.3752 C   0  0  0  0  0  0  0  0  0  0  0  0
   -0.3844    0.0904    0.5481 C   0  0  0  0  0  0  0  0  0  0  0  0
    0.8254   -0.0465   -0.2094 O   0  0  0  0  0  0  0  0  0  0  0  0
    1.9590    0.2030    0.5013 C   0  0  0  0  0  0  0  0  0  0  0  0
    2.0032    0.5192    1.6816 O   0  0  0  0  0  0  0  0  0  0  0  0
    3.1611    0.0337   -0.3763 C   0  0  0  0  0  0  0  0  0  0  0  0
   -2.9451   -0.7965    1.1841 H   0  0  0  0  0  0  0  0  0  0  0  0
   -3.0364    0.9162    0.7286 H   0  0  0  0  0  0  0  0  0  0  0  0
   -3.7113   -0.3239   -0.3420 H   0  0  0  0  0  0  0  0  0  0  0  0
   -1.5354    0.4617   -1.2357 H   0  0  0  0  0  0  0  0  0  0  0  0
   -1.4452   -1.2282   -0.7863 H   0  0  0  0  0  0  0  0  0  0  0  0
   -0.3712   -0.6136    1.3884 H   0  0  0  0  0  0  0  0  0  0  0  0
   -0.4635    1.1155    0.9286 H   0  0  0  0  0  0  0  0  0  0  0  0
    3.1156    0.7414   -1.2078 H   0  0  0  0  0  0  0  0  0  0  0  0
    3.2082   -0.9935   -0.7464 H   0  0  0  0  0  0  0  0  0  0  0  0
    4.0654    0.2365    0.2048 H   0  0  0  0  0  0  0  0  0  0  0  0
  1  2  1  0
  2  3  1  0
  3  4  1  0
  4  5  1  0
  5  6  2  0
  5  7  1  0
  1  8  1  0
  1  9  1  0
  1 10  1  0
  2 11  1  0
  2 12  1  0
  3 13  1  0
  3 14  1  0
  7 15  1  0
  7 16  1  0
  7 17  1  0
M  END
>  <Energy>  (1) 
-11.4223570051497

>  <Real charge>  (1) 
0

>  <Mult>  (1) 
1

$$$$
mol_156 45
     RDKit          3D

 17 16  0  0  0  0  0  0  0  0999 V2000
   -1.9970    1.2487    0.6770 C   0  0  0  0  0  0  0  0  0  0  0  0
   -1.8397   -0.0230   -0.1446 C   0  0  0  0  0  0  0  0  0  0  0  0
   -0.6489   -0.8622    0.3075 C   0  0  0  0  0  0  0  0  0  0  0  0
    0.5579   -0.1210    0.0869 O   0  0  0  0  0  0  0  0  0  0  0  0
    1.6903   -0.7711    0.4704 C   0  0  0  0  0  0  0  0  0  0  0  0
    1.7363   -1.8897    0.9621 O   0  0  0  0  0  0  0  0  0  0  0  0
    2.8886    0.0867    0.2020 C   0  0  0  0  0  0  0  0  0  0  0  0
   -2.8756    1.8085    0.3409 H   0  0  0  0  0  0  0  0  0  0  0  0
   -2.1292    1.0150    1.7382 H   0  0  0  0  0  0  0  0  0  0  0  0
   -1.1236    1.9003    0.5744 H   0  0  0  0  0  0  0  0  0  0  0  0
   -2.7552   -0.6194   -0.0652 H   0  0  0  0  0  0  0  0  0  0  0  0
   -1.7131    0.2571   -1.1968 H   0  0  0  0  0  0  0  0  0  0  0  0
   -0.6157   -1.7875   -0.2795 H   0  0  0  0  0  0  0  0  0  0  0  0
   -0.7437   -1.1107    1.3712 H   0  0  0  0  0  0  0  0  0  0  0  0
    2.9624    0.2961   -0.8680 H   0  0  0  0  0  0  0  0  0  0  0  0
    3.7919   -0.4439    0.5166 H   0  0  0  0  0  0  0  0  0  0  0  0
    2.8144    1.0160    0.7723 H   0  0  0  0  0  0  0  0  0  0  0  0
  1  2  1  0
  2  3  1  0
  3  4  1  0
  4  5  1  0
  5  6  2  0
  5  7  1  0
  1  8  1  0
  1  9  1  0
  1 10  1  0
  2 11  1  0
  2 12  1  0
  3 13  1  0
  3 14  1  0
  7 15  1  0
  7 16  1  0
  7 17  1  0
M  END
>  <Energy>  (2) 
-11.203897437766777

>  <Real charge>  (2) 
0

>  <Mult>  (2) 
1

$$$$
mol_156 223
     RDKit          3D

 17 16  0  0  0  0  0  0  0  0999 V2000
   -2.7496   -0.1381    0.4355 C   0  0  0  0  0  0  0  0  0  0  0  0
   -1.3046    0.2893    0.6210 C   0  0  0  0  0  0  0  0  0  0  0  0
   -0.4731    0.0275   -0.6299 C   0  0  0  0  0  0  0  0  0  0  0  0
    0.8713    0.4931   -0.4330 O   0  0  0  0  0  0  0  0  0  0  0  0
    1.7252   -0.3941    0.1471 C   0  0  0  0  0  0  0  0  0  0  0  0
    1.4412   -1.5262    0.5111 O   0  0  0  0  0  0  0  0  0  0  0  0
    3.0839    0.2219    0.2844 C   0  0  0  0  0  0  0  0  0  0  0  0
   -3.2177    0.4087   -0.3892 H   0  0  0  0  0  0  0  0  0  0  0  0
   -3.3242    0.0623    1.3452 H   0  0  0  0  0  0  0  0  0  0  0  0
   -2.8169   -1.2092    0.2202 H   0  0  0  0  0  0  0  0  0  0  0  0
   -0.8714   -0.2403    1.4773 H   0  0  0  0  0  0  0  0  0  0  0  0
   -1.2608    1.3555    0.8732 H   0  0  0  0  0  0  0  0  0  0  0  0
   -0.8814    0.5903   -1.4765 H   0  0  0  0  0  0  0  0  0  0  0  0
   -0.4865   -1.0314   -0.9147 H   0  0  0  0  0  0  0  0  0  0  0  0
    3.7650   -0.5011    0.7426 H   0  0  0  0  0  0  0  0  0  0  0  0
    3.0277    1.1037    0.9275 H   0  0  0  0  0  0  0  0  0  0  0  0
    3.4719    0.4881   -0.7020 H   0  0  0  0  0  0  0  0  0  0  0  0
  1  2  1  0
  2  3  1  0
  3  4  1  0
  4  5  1  0
  5  6  2  0
  5  7  1  0
  1  8  1  0
  1  9  1  0
  1 10  1  0
  2 11  1  0
  2 12  1  0
  3 13  1  0
  3 14  1  0
  7 15  1  0
  7 16  1  0
  7 17  1  0
M  END
>  <Energy>  (3) 
-11.028218283789753

>  <Real charge>  (3) 
0

>  <Mult>  (3) 
1

$$$$
mol_156 83
     RDKit          3D

 17 16  0  0  0  0  0  0  0  0999 V2000
   -2.0434    0.9443   -0.1007 C   0  0  0  0  0  0  0  0  0  0  0  0
   -1.5558   -0.4699   -0.3810 C   0  0  0  0  0  0  0  0  0  0  0  0
   -0.5579   -0.9586    0.6657 C   0  0  0  0  0  0  0  0  0  0  0  0
    0.5997   -0.1108    0.7152 O   0  0  0  0  0  0  0  0  0  0  0  0
    1.5822   -0.3978   -0.1818 C   0  0  0  0  0  0  0  0  0  0  0  0
    1.5549   -1.2983   -1.0083 O   0  0  0  0  0  0  0  0  0  0  0  0
    2.7194    0.5632   -0.0161 C   0  0  0  0  0  0  0  0  0  0  0  0
   -1.2192    1.6636   -0.1334 H   0  0  0  0  0  0  0  0  0  0  0  0
   -2.7813    1.2444   -0.8515 H   0  0  0  0  0  0  0  0  0  0  0  0
   -2.5168    1.0072    0.8843 H   0  0  0  0  0  0  0  0  0  0  0  0
   -1.0943   -0.4858   -1.3747 H   0  0  0  0  0  0  0  0  0  0  0  0
   -2.4143   -1.1501   -0.4056 H   0  0  0  0  0  0  0  0  0  0  0  0
   -1.0155   -0.9333    1.6608 H   0  0  0  0  0  0  0  0  0  0  0  0
   -0.2708   -2.0000    0.4777 H   0  0  0  0  0  0  0  0  0  0  0  0
    3.5069    0.3205   -0.7354 H   0  0  0  0  0  0  0  0  0  0  0  0
    3.1319    0.4794    0.9925 H   0  0  0  0  0  0  0  0  0  0  0  0
    2.3741    1.5822   -0.2078 H   0  0  0  0  0  0  0  0  0  0  0  0
  1  2  1  0
  2  3  1  0
  3  4  1  0
  4  5  1  0
  5  6  2  0
  5  7  1  0
  1  8  1  0
  1  9  1  0
  1 10  1  0
  2 11  1  0
  2 12  1  0
  3 13  1  0
  3 14  1  0
  7 15  1  0
  7 16  1  0
  7 17  1  0
M  END
>  <Energy>  (4) 
-10.860347868053958

>  <Real charge>  (4) 
0

>  <Mult>  (4) 
1

$$$$
