mol_334 71
     RDKit          3D

 24 24  0  0  0  0  0  0  0  0999 V2000
   -1.8681   -0.8856    1.3320 C   0  0  0  0  0  0  0  0  0  0  0  0
   -1.3874   -0.0058    0.1737 C   0  0  0  0  0  0  0  0  0  0  0  0
   -2.1756   -0.3077   -1.1048 C   0  0  0  0  0  0  0  0  0  0  0  0
    0.1149   -0.1432   -0.0485 C   0  0  0  0  0  0  0  0  0  0  0  0
    0.6491   -1.3955   -0.4129 C   0  0  0  0  0  0  0  0  0  0  0  0
    2.0167   -1.5680   -0.6263 C   0  0  0  0  0  0  0  0  0  0  0  0
    2.8807   -0.4909   -0.4799 C   0  0  0  0  0  0  0  0  0  0  0  0
    2.3762    0.7573   -0.1202 C   0  0  0  0  0  0  0  0  0  0  0  0
    1.0000    0.9488    0.0988 C   0  0  0  0  0  0  0  0  0  0  0  0
    0.5240    2.3233    0.4849 C   0  0  0  0  0  0  0  0  0  0  0  0
   -1.3116   -0.6624    2.2491 H   0  0  0  0  0  0  0  0  0  0  0  0
   -2.9303   -0.7086    1.5333 H   0  0  0  0  0  0  0  0  0  0  0  0
   -1.7460   -1.9528    1.1177 H   0  0  0  0  0  0  0  0  0  0  0  0
   -1.6295    1.0258    0.4489 H   0  0  0  0  0  0  0  0  0  0  0  0
   -2.0662   -1.3509   -1.4201 H   0  0  0  0  0  0  0  0  0  0  0  0
   -3.2437   -0.1195   -0.9506 H   0  0  0  0  0  0  0  0  0  0  0  0
   -1.8390    0.3288   -1.9307 H   0  0  0  0  0  0  0  0  0  0  0  0
   -0.0038   -2.2571   -0.5348 H   0  0  0  0  0  0  0  0  0  0  0  0
    2.4040   -2.5436   -0.9066 H   0  0  0  0  0  0  0  0  0  0  0  0
    3.9467   -0.6201   -0.6450 H   0  0  0  0  0  0  0  0  0  0  0  0
    3.0698    1.5884   -0.0106 H   0  0  0  0  0  0  0  0  0  0  0  0
    1.3541    3.0352    0.5490 H   0  0  0  0  0  0  0  0  0  0  0  0
    0.0417    2.2968    1.4672 H   0  0  0  0  0  0  0  0  0  0  0  0
   -0.1767    2.7073   -0.2634 H   0  0  0  0  0  0  0  0  0  0  0  0
  1  2  1  0
  2  3  1  0
  2  4  1  0
  4  5  2  0
  5  6  1  0
  6  7  2  0
  7  8  1  0
  8  9  2  0
  9 10  1  0
  9  4  1  0
  1 11  1  0
  1 12  1  0
  1 13  1  0
  2 14  1  0
  3 15  1  0
  3 16  1  0
  3 17  1  0
  5 18  1  0
  6 19  1  0
  7 20  1  0
  8 21  1  0
 10 22  1  0
 10 23  1  0
 10 24  1  0
M  END
>  <Energy>  (1) 
27.557220069072596

>  <Real charge>  (1) 
0

>  <Mult>  (1) 
1

$$$$
