mol_706 71
     RDKit          3D

 24 23  0  0  0  0  0  0  0  0999 V2000
    3.0455    0.1745   -0.1862 C   0  0  0  0  0  0  0  0  0  0  0  0
    1.5996    0.2059   -0.6617 C   0  0  0  0  0  0  0  0  0  0  0  0
    0.6416   -0.2406    0.4483 C   0  0  0  0  0  0  0  0  0  0  0  0
   -0.8654   -0.2611    0.0663 C   0  0  0  0  0  0  0  0  0  0  0  0
   -1.1332   -1.2827   -1.0533 C   0  0  0  0  0  0  0  0  0  0  0  0
   -1.6582   -0.6975    1.3175 C   0  0  0  0  0  0  0  0  0  0  0  0
   -1.3705    1.1232   -0.3943 C   0  0  0  0  0  0  0  0  0  0  0  0
   -1.0998    2.1160    0.5867 O   0  0  0  0  0  0  0  0  0  0  0  0
    3.1925    0.8439    0.6674 H   0  0  0  0  0  0  0  0  0  0  0  0
    3.7153    0.4967   -0.9896 H   0  0  0  0  0  0  0  0  0  0  0  0
    3.3378   -0.8366    0.1146 H   0  0  0  0  0  0  0  0  0  0  0  0
    1.3629    1.2248   -0.9849 H   0  0  0  0  0  0  0  0  0  0  0  0
    1.5063   -0.4474   -1.5350 H   0  0  0  0  0  0  0  0  0  0  0  0
    0.9368   -1.2461    0.7782 H   0  0  0  0  0  0  0  0  0  0  0  0
    0.7871    0.4145    1.3177 H   0  0  0  0  0  0  0  0  0  0  0  0
   -2.2077   -1.3825   -1.2459 H   0  0  0  0  0  0  0  0  0  0  0  0
   -0.6625   -0.9847   -1.9957 H   0  0  0  0  0  0  0  0  0  0  0  0
   -0.7512   -2.2739   -0.7845 H   0  0  0  0  0  0  0  0  0  0  0  0
   -2.7349   -0.7228    1.1151 H   0  0  0  0  0  0  0  0  0  0  0  0
   -1.3592   -1.7001    1.6441 H   0  0  0  0  0  0  0  0  0  0  0  0
   -1.4937   -0.0131    2.1570 H   0  0  0  0  0  0  0  0  0  0  0  0
   -2.4532    1.1018   -0.5645 H   0  0  0  0  0  0  0  0  0  0  0  0
   -0.8950    1.4291   -1.3320 H   0  0  0  0  0  0  0  0  0  0  0  0
   -1.4411    2.9586    0.2419 H   0  0  0  0  0  0  0  0  0  0  0  0
  1  2  1  0
  2  3  1  0
  3  4  1  0
  4  5  1  0
  4  6  1  0
  4  7  1  0
  7  8  1  0
  1  9  1  0
  1 10  1  0
  1 11  1  0
  2 12  1  0
  2 13  1  0
  3 14  1  0
  3 15  1  0
  5 16  1  0
  5 17  1  0
  5 18  1  0
  6 19  1  0
  6 20  1  0
  6 21  1  0
  7 22  1  0
  7 23  1  0
  8 24  1  0
M  END
>  <Energy>  (1) 
13.472602932208291

>  <Real charge>  (1) 
0

>  <Mult>  (1) 
1

$$$$
mol_706 276
     RDKit          3D

 24 23  0  0  0  0  0  0  0  0999 V2000
    3.0808    0.1415   -0.5336 C   0  0  0  0  0  0  0  0  0  0  0  0
    1.5841    0.2957   -0.7666 C   0  0  0  0  0  0  0  0  0  0  0  0
    0.7790   -0.3075    0.3898 C   0  0  0  0  0  0  0  0  0  0  0  0
   -0.7670   -0.2213    0.2568 C   0  0  0  0  0  0  0  0  0  0  0  0
   -1.3872   -0.9008    1.4972 C   0  0  0  0  0  0  0  0  0  0  0  0
   -1.2541   -0.9795   -0.9924 C   0  0  0  0  0  0  0  0  0  0  0  0
   -1.2294    1.2510    0.1919 C   0  0  0  0  0  0  0  0  0  0  0  0
   -2.6496    1.3400    0.1654 O   0  0  0  0  0  0  0  0  0  0  0  0
    3.3589   -0.9142   -0.4536 H   0  0  0  0  0  0  0  0  0  0  0  0
    3.3893    0.6497    0.3856 H   0  0  0  0  0  0  0  0  0  0  0  0
    3.6406    0.5777   -1.3670 H   0  0  0  0  0  0  0  0  0  0  0  0
    1.3589    1.3612   -0.8766 H   0  0  0  0  0  0  0  0  0  0  0  0
    1.3270   -0.1956   -1.7104 H   0  0  0  0  0  0  0  0  0  0  0  0
    1.0831    0.1887    1.3215 H   0  0  0  0  0  0  0  0  0  0  0  0
    1.0680   -1.3617    0.4995 H   0  0  0  0  0  0  0  0  0  0  0  0
   -1.0985   -0.3794    2.4169 H   0  0  0  0  0  0  0  0  0  0  0  0
   -2.4817   -0.9119    1.4502 H   0  0  0  0  0  0  0  0  0  0  0  0
   -1.0535   -1.9411    1.5850 H   0  0  0  0  0  0  0  0  0  0  0  0
   -0.9369   -0.4828   -1.9151 H   0  0  0  0  0  0  0  0  0  0  0  0
   -0.8632   -2.0030   -1.0091 H   0  0  0  0  0  0  0  0  0  0  0  0
   -2.3477   -1.0450   -1.0199 H   0  0  0  0  0  0  0  0  0  0  0  0
   -0.8546    1.7453   -0.7098 H   0  0  0  0  0  0  0  0  0  0  0  0
   -0.8709    1.8079    1.0646 H   0  0  0  0  0  0  0  0  0  0  0  0
   -2.8756    2.2851    0.1298 H   0  0  0  0  0  0  0  0  0  0  0  0
  1  2  1  0
  2  3  1  0
  3  4  1  0
  4  5  1  0
  4  6  1  0
  4  7  1  0
  7  8  1  0
  1  9  1  0
  1 10  1  0
  1 11  1  0
  2 12  1  0
  2 13  1  0
  3 14  1  0
  3 15  1  0
  5 16  1  0
  5 17  1  0
  5 18  1  0
  6 19  1  0
  6 20  1  0
  6 21  1  0
  7 22  1  0
  7 23  1  0
  8 24  1  0
M  END
>  <Energy>  (2) 
13.694823127431164

>  <Real charge>  (2) 
0

>  <Mult>  (2) 
1

$$$$
mol_706 73
     RDKit          3D

 24 23  0  0  0  0  0  0  0  0999 V2000
    2.9776    0.8513    0.0437 C   0  0  0  0  0  0  0  0  0  0  0  0
    1.8076   -0.1215    0.0966 C   0  0  0  0  0  0  0  0  0  0  0  0
    0.4674    0.6195    0.0209 C   0  0  0  0  0  0  0  0  0  0  0  0
   -0.8041   -0.2761    0.0510 C   0  0  0  0  0  0  0  0  0  0  0  0
   -0.8348   -1.2128   -1.1713 C   0  0  0  0  0  0  0  0  0  0  0  0
   -0.8528   -1.1245    1.3342 C   0  0  0  0  0  0  0  0  0  0  0  0
   -2.0596    0.6301    0.0306 C   0  0  0  0  0  0  0  0  0  0  0  0
   -2.1001    1.4251   -1.1478 O   0  0  0  0  0  0  0  0  0  0  0  0
    2.9400    1.5563    0.8804 H   0  0  0  0  0  0  0  0  0  0  0  0
    3.9254    0.3070    0.1008 H   0  0  0  0  0  0  0  0  0  0  0  0
    2.9704    1.4236   -0.8895 H   0  0  0  0  0  0  0  0  0  0  0  0
    1.8765   -0.6952    1.0264 H   0  0  0  0  0  0  0  0  0  0  0  0
    1.9040   -0.8267   -0.7350 H   0  0  0  0  0  0  0  0  0  0  0  0
    0.4620    1.2247   -0.8952 H   0  0  0  0  0  0  0  0  0  0  0  0
    0.4181    1.3312    0.8562 H   0  0  0  0  0  0  0  0  0  0  0  0
   -0.7190   -0.6554   -2.1072 H   0  0  0  0  0  0  0  0  0  0  0  0
   -1.7844   -1.7578   -1.2234 H   0  0  0  0  0  0  0  0  0  0  0  0
   -0.0368   -1.9613   -1.1280 H   0  0  0  0  0  0  0  0  0  0  0  0
   -0.7705   -0.4946    2.2269 H   0  0  0  0  0  0  0  0  0  0  0  0
   -0.0448   -1.8626    1.3659 H   0  0  0  0  0  0  0  0  0  0  0  0
   -1.7962   -1.6785    1.4039 H   0  0  0  0  0  0  0  0  0  0  0  0
   -2.0657    1.3030    0.8957 H   0  0  0  0  0  0  0  0  0  0  0  0
   -2.9748    0.0280    0.0626 H   0  0  0  0  0  0  0  0  0  0  0  0
   -2.9055    1.9676   -1.0985 H   0  0  0  0  0  0  0  0  0  0  0  0
  1  2  1  0
  2  3  1  0
  3  4  1  0
  4  5  1  0
  4  6  1  0
  4  7  1  0
  7  8  1  0
  1  9  1  0
  1 10  1  0
  1 11  1  0
  2 12  1  0
  2 13  1  0
  3 14  1  0
  3 15  1  0
  5 16  1  0
  5 17  1  0
  5 18  1  0
  6 19  1  0
  6 20  1  0
  6 21  1  0
  7 22  1  0
  7 23  1  0
  8 24  1  0
M  END
>  <Energy>  (3) 
13.76921974423263

>  <Real charge>  (3) 
0

>  <Mult>  (3) 
1

$$$$
mol_706 392
     RDKit          3D

 24 23  0  0  0  0  0  0  0  0999 V2000
    2.9800    0.3923    0.1011 C   0  0  0  0  0  0  0  0  0  0  0  0
    1.6352   -0.1136   -0.4022 C   0  0  0  0  0  0  0  0  0  0  0  0
    0.5018    0.2872    0.5483 C   0  0  0  0  0  0  0  0  0  0  0  0
   -0.9196   -0.1886    0.1357 C   0  0  0  0  0  0  0  0  0  0  0  0
   -1.9149    0.3508    1.1856 C   0  0  0  0  0  0  0  0  0  0  0  0
   -0.9999   -1.7263    0.1421 C   0  0  0  0  0  0  0  0  0  0  0  0
   -1.3361    0.3200   -1.2625 C   0  0  0  0  0  0  0  0  0  0  0  0
   -1.2899    1.7381   -1.3525 O   0  0  0  0  0  0  0  0  0  0  0  0
    3.7774    0.0980   -0.5885 H   0  0  0  0  0  0  0  0  0  0  0  0
    3.2123   -0.0243    1.0864 H   0  0  0  0  0  0  0  0  0  0  0  0
    2.9843    1.4842    0.1789 H   0  0  0  0  0  0  0  0  0  0  0  0
    1.4618    0.2982   -1.4016 H   0  0  0  0  0  0  0  0  0  0  0  0
    1.6874   -1.2027   -0.4992 H   0  0  0  0  0  0  0  0  0  0  0  0
    0.7309   -0.1088    1.5473 H   0  0  0  0  0  0  0  0  0  0  0  0
    0.5043    1.3801    0.6548 H   0  0  0  0  0  0  0  0  0  0  0  0
   -2.9423    0.0531    0.9470 H   0  0  0  0  0  0  0  0  0  0  0  0
   -1.6823   -0.0350    2.1848 H   0  0  0  0  0  0  0  0  0  0  0  0
   -1.8894    1.4448    1.2389 H   0  0  0  0  0  0  0  0  0  0  0  0
   -0.3755   -2.1681   -0.6412 H   0  0  0  0  0  0  0  0  0  0  0  0
   -2.0269   -2.0675   -0.0321 H   0  0  0  0  0  0  0  0  0  0  0  0
   -0.6738   -2.1361    1.1045 H   0  0  0  0  0  0  0  0  0  0  0  0
   -0.7043   -0.0967   -2.0541 H   0  0  0  0  0  0  0  0  0  0  0  0
   -2.3648    0.0153   -1.4868 H   0  0  0  0  0  0  0  0  0  0  0  0
   -0.3558    2.0056   -1.3346 H   0  0  0  0  0  0  0  0  0  0  0  0
  1  2  1  0
  2  3  1  0
  3  4  1  0
  4  5  1  0
  4  6  1  0
  4  7  1  0
  7  8  1  0
  1  9  1  0
  1 10  1  0
  1 11  1  0
  2 12  1  0
  2 13  1  0
  3 14  1  0
  3 15  1  0
  5 16  1  0
  5 17  1  0
  5 18  1  0
  6 19  1  0
  6 20  1  0
  6 21  1  0
  7 22  1  0
  7 23  1  0
  8 24  1  0
M  END
>  <Energy>  (4) 
13.859862376021006

>  <Real charge>  (4) 
0

>  <Mult>  (4) 
1

$$$$
mol_706 64
     RDKit          3D

 24 23  0  0  0  0  0  0  0  0999 V2000
    3.0789   -0.3521   -0.4223 C   0  0  0  0  0  0  0  0  0  0  0  0
    1.7581   -0.6121    0.2893 C   0  0  0  0  0  0  0  0  0  0  0  0
    0.6417    0.2733   -0.2756 C   0  0  0  0  0  0  0  0  0  0  0  0
   -0.7610    0.0998    0.3717 C   0  0  0  0  0  0  0  0  0  0  0  0
   -0.7188    0.4293    1.8757 C   0  0  0  0  0  0  0  0  0  0  0  0
   -1.2742   -1.3419    0.1973 C   0  0  0  0  0  0  0  0  0  0  0  0
   -1.7273    1.0786   -0.3413 C   0  0  0  0  0  0  0  0  0  0  0  0
   -3.0435    0.9884    0.1895 O   0  0  0  0  0  0  0  0  0  0  0  0
    3.3909    0.6904   -0.3022 H   0  0  0  0  0  0  0  0  0  0  0  0
    3.8646   -0.9914   -0.0076 H   0  0  0  0  0  0  0  0  0  0  0  0
    2.9969   -0.5660   -1.4927 H   0  0  0  0  0  0  0  0  0  0  0  0
    1.5048   -1.6706    0.1732 H   0  0  0  0  0  0  0  0  0  0  0  0
    1.8969   -0.4204    1.3580 H   0  0  0  0  0  0  0  0  0  0  0  0
    0.5601    0.0809   -1.3542 H   0  0  0  0  0  0  0  0  0  0  0  0
    0.9497    1.3232   -0.1769 H   0  0  0  0  0  0  0  0  0  0  0  0
   -0.3255    1.4377    2.0459 H   0  0  0  0  0  0  0  0  0  0  0  0
   -1.7164    0.3809    2.3262 H   0  0  0  0  0  0  0  0  0  0  0  0
   -0.0882   -0.2753    2.4276 H   0  0  0  0  0  0  0  0  0  0  0  0
   -1.2873   -1.6288   -0.8600 H   0  0  0  0  0  0  0  0  0  0  0  0
   -2.2925   -1.4559    0.5855 H   0  0  0  0  0  0  0  0  0  0  0  0
   -0.6488   -2.0626    0.7339 H   0  0  0  0  0  0  0  0  0  0  0  0
   -1.3862    2.1133   -0.2229 H   0  0  0  0  0  0  0  0  0  0  0  0
   -1.7802    0.8571   -1.4133 H   0  0  0  0  0  0  0  0  0  0  0  0
   -3.5928    1.6243   -0.2998 H   0  0  0  0  0  0  0  0  0  0  0  0
  1  2  1  0
  2  3  1  0
  3  4  1  0
  4  5  1  0
  4  6  1  0
  4  7  1  0
  7  8  1  0
  1  9  1  0
  1 10  1  0
  1 11  1  0
  2 12  1  0
  2 13  1  0
  3 14  1  0
  3 15  1  0
  5 16  1  0
  5 17  1  0
  5 18  1  0
  6 19  1  0
  6 20  1  0
  6 21  1  0
  7 22  1  0
  7 23  1  0
  8 24  1  0
M  END
>  <Energy>  (5) 
13.865621337033732

>  <Real charge>  (5) 
0

>  <Mult>  (5) 
1

$$$$
mol_706 205
     RDKit          3D

 24 23  0  0  0  0  0  0  0  0999 V2000
    3.0537    0.4415    0.5216 C   0  0  0  0  0  0  0  0  0  0  0  0
    1.5551    0.3806    0.7828 C   0  0  0  0  0  0  0  0  0  0  0  0
    0.7944   -0.0862   -0.4634 C   0  0  0  0  0  0  0  0  0  0  0  0
   -0.7487   -0.1998   -0.3109 C   0  0  0  0  0  0  0  0  0  0  0  0
   -1.1128   -1.2273    0.7772 C   0  0  0  0  0  0  0  0  0  0  0  0
   -1.3212   -0.7050   -1.6529 C   0  0  0  0  0  0  0  0  0  0  0  0
   -1.3634    1.1785    0.0240 C   0  0  0  0  0  0  0  0  0  0  0  0
   -2.7861    1.1449    0.0342 O   0  0  0  0  0  0  0  0  0  0  0  0
    3.5813    0.7770    1.4200 H   0  0  0  0  0  0  0  0  0  0  0  0
    3.4446   -0.5432    0.2463 H   0  0  0  0  0  0  0  0  0  0  0  0
    3.2828    1.1418   -0.2880 H   0  0  0  0  0  0  0  0  0  0  0  0
    1.3755   -0.3019    1.6197 H   0  0  0  0  0  0  0  0  0  0  0  0
    1.2162    1.3752    1.0894 H   0  0  0  0  0  0  0  0  0  0  0  0
    1.1948   -1.0629   -0.7678 H   0  0  0  0  0  0  0  0  0  0  0  0
    1.0200    0.6038   -1.2880 H   0  0  0  0  0  0  0  0  0  0  0  0
   -0.8507   -0.8657    1.7768 H   0  0  0  0  0  0  0  0  0  0  0  0
   -0.5885   -2.1757    0.6138 H   0  0  0  0  0  0  0  0  0  0  0  0
   -2.1863   -1.4461    0.7816 H   0  0  0  0  0  0  0  0  0  0  0  0
   -1.1134    0.0047   -2.4616 H   0  0  0  0  0  0  0  0  0  0  0  0
   -2.4065   -0.8459   -1.6039 H   0  0  0  0  0  0  0  0  0  0  0  0
   -0.8789   -1.6681   -1.9328 H   0  0  0  0  0  0  0  0  0  0  0  0
   -1.0360    1.5423    1.0033 H   0  0  0  0  0  0  0  0  0  0  0  0
   -1.0620    1.9223   -0.7216 H   0  0  0  0  0  0  0  0  0  0  0  0
   -3.0639    0.6154    0.8002 H   0  0  0  0  0  0  0  0  0  0  0  0
  1  2  1  0
  2  3  1  0
  3  4  1  0
  4  5  1  0
  4  6  1  0
  4  7  1  0
  7  8  1  0
  1  9  1  0
  1 10  1  0
  1 11  1  0
  2 12  1  0
  2 13  1  0
  3 14  1  0
  3 15  1  0
  5 16  1  0
  5 17  1  0
  5 18  1  0
  6 19  1  0
  6 20  1  0
  6 21  1  0
  7 22  1  0
  7 23  1  0
  8 24  1  0
M  END
>  <Energy>  (6) 
14.111256057397316

>  <Real charge>  (6) 
0

>  <Mult>  (6) 
1

$$$$
mol_706 363
     RDKit          3D

 24 23  0  0  0  0  0  0  0  0999 V2000
    3.0709    0.2578   -0.1232 C   0  0  0  0  0  0  0  0  0  0  0  0
    1.7319   -0.4023    0.1756 C   0  0  0  0  0  0  0  0  0  0  0  0
    0.5661    0.4579   -0.3263 C   0  0  0  0  0  0  0  0  0  0  0  0
   -0.8572   -0.1102   -0.0608 C   0  0  0  0  0  0  0  0  0  0  0  0
   -1.1123   -0.2423    1.4522 C   0  0  0  0  0  0  0  0  0  0  0  0
   -1.0322   -1.4923   -0.7165 C   0  0  0  0  0  0  0  0  0  0  0  0
   -1.9056    0.8451   -0.6854 C   0  0  0  0  0  0  0  0  0  0  0  0
   -1.8201    2.1621   -0.1561 O   0  0  0  0  0  0  0  0  0  0  0  0
    3.1462    1.2330    0.3685 H   0  0  0  0  0  0  0  0  0  0  0  0
    3.8914   -0.3693    0.2394 H   0  0  0  0  0  0  0  0  0  0  0  0
    3.2051    0.4036   -1.1998 H   0  0  0  0  0  0  0  0  0  0  0  0
    1.6552   -0.5599    1.2562 H   0  0  0  0  0  0  0  0  0  0  0  0
    1.7165   -1.3863   -0.3039 H   0  0  0  0  0  0  0  0  0  0  0  0
    0.6503    1.4511    0.1344 H   0  0  0  0  0  0  0  0  0  0  0  0
    0.6896    0.6118   -1.4069 H   0  0  0  0  0  0  0  0  0  0  0  0
   -2.1585   -0.5006    1.6524 H   0  0  0  0  0  0  0  0  0  0  0  0
   -0.4957   -1.0296    1.8987 H   0  0  0  0  0  0  0  0  0  0  0  0
   -0.8908    0.6907    1.9814 H   0  0  0  0  0  0  0  0  0  0  0  0
   -0.7962   -1.4545   -1.7858 H   0  0  0  0  0  0  0  0  0  0  0  0
   -0.3873   -2.2474   -0.2554 H   0  0  0  0  0  0  0  0  0  0  0  0
   -2.0645   -1.8471   -0.6158 H   0  0  0  0  0  0  0  0  0  0  0  0
   -2.9260    0.4793   -0.5221 H   0  0  0  0  0  0  0  0  0  0  0  0
   -1.7571    0.9195   -1.7685 H   0  0  0  0  0  0  0  0  0  0  0  0
   -2.1200    2.1299    0.7677 H   0  0  0  0  0  0  0  0  0  0  0  0
  1  2  1  0
  2  3  1  0
  3  4  1  0
  4  5  1  0
  4  6  1  0
  4  7  1  0
  7  8  1  0
  1  9  1  0
  1 10  1  0
  1 11  1  0
  2 12  1  0
  2 13  1  0
  3 14  1  0
  3 15  1  0
  5 16  1  0
  5 17  1  0
  5 18  1  0
  6 19  1  0
  6 20  1  0
  6 21  1  0
  7 22  1  0
  7 23  1  0
  8 24  1  0
M  END
>  <Energy>  (7) 
14.200258291142402

>  <Real charge>  (7) 
0

>  <Mult>  (7) 
1

$$$$
mol_706 458
     RDKit          3D

 24 23  0  0  0  0  0  0  0  0999 V2000
   -3.1097    0.4367    0.1053 C   0  0  0  0  0  0  0  0  0  0  0  0
   -1.6654    0.4055    0.5863 C   0  0  0  0  0  0  0  0  0  0  0  0
   -0.7303   -0.1283   -0.5047 C   0  0  0  0  0  0  0  0  0  0  0  0
    0.7742   -0.2250   -0.1238 C   0  0  0  0  0  0  0  0  0  0  0  0
    1.5278   -0.8106   -1.3378 C   0  0  0  0  0  0  0  0  0  0  0  0
    0.9789   -1.1812    1.0662 C   0  0  0  0  0  0  0  0  0  0  0  0
    1.3386    1.1717    0.2227 C   0  0  0  0  0  0  0  0  0  0  0  0
    2.7309    1.1315    0.5145 O   0  0  0  0  0  0  0  0  0  0  0  0
   -3.2178    1.0844   -0.7705 H   0  0  0  0  0  0  0  0  0  0  0  0
   -3.7633    0.8210    0.8946 H   0  0  0  0  0  0  0  0  0  0  0  0
   -3.4557   -0.5665   -0.1634 H   0  0  0  0  0  0  0  0  0  0  0  0
   -1.3762    1.4201    0.8777 H   0  0  0  0  0  0  0  0  0  0  0  0
   -1.6105   -0.2237    1.4804 H   0  0  0  0  0  0  0  0  0  0  0  0
   -1.0850   -1.1234   -0.8062 H   0  0  0  0  0  0  0  0  0  0  0  0
   -0.8305    0.5112   -1.3924 H   0  0  0  0  0  0  0  0  0  0  0  0
    2.5877   -0.9783   -1.1185 H   0  0  0  0  0  0  0  0  0  0  0  0
    1.1034   -1.7760   -1.6367 H   0  0  0  0  0  0  0  0  0  0  0  0
    1.4662   -0.1380   -2.2006 H   0  0  0  0  0  0  0  0  0  0  0  0
    0.5530   -0.7743    1.9891 H   0  0  0  0  0  0  0  0  0  0  0  0
    0.5075   -2.1522    0.8770 H   0  0  0  0  0  0  0  0  0  0  0  0
    2.0431   -1.3634    1.2542 H   0  0  0  0  0  0  0  0  0  0  0  0
    1.1816    1.8791   -0.5995 H   0  0  0  0  0  0  0  0  0  0  0  0
    0.8470    1.5834    1.1093 H   0  0  0  0  0  0  0  0  0  0  0  0
    3.2046    0.9962   -0.3232 H   0  0  0  0  0  0  0  0  0  0  0  0
  1  2  1  0
  2  3  1  0
  3  4  1  0
  4  5  1  0
  4  6  1  0
  4  7  1  0
  7  8  1  0
  1  9  1  0
  1 10  1  0
  1 11  1  0
  2 12  1  0
  2 13  1  0
  3 14  1  0
  3 15  1  0
  5 16  1  0
  5 17  1  0
  5 18  1  0
  6 19  1  0
  6 20  1  0
  6 21  1  0
  7 22  1  0
  7 23  1  0
  8 24  1  0
M  END
>  <Energy>  (8) 
14.25026908616542

>  <Real charge>  (8) 
0

>  <Mult>  (8) 
1

$$$$
mol_706 113
     RDKit          3D

 24 23  0  0  0  0  0  0  0  0999 V2000
   -3.1477    0.1794    0.1319 C   0  0  0  0  0  0  0  0  0  0  0  0
   -1.7122    0.2443    0.6356 C   0  0  0  0  0  0  0  0  0  0  0  0
   -0.7200   -0.1262   -0.4725 C   0  0  0  0  0  0  0  0  0  0  0  0
    0.7853   -0.1036   -0.0812 C   0  0  0  0  0  0  0  0  0  0  0  0
    1.0728   -1.0951    1.0616 C   0  0  0  0  0  0  0  0  0  0  0  0
    1.2121    1.3052    0.3714 C   0  0  0  0  0  0  0  0  0  0  0  0
    1.5941   -0.5201   -1.3369 C   0  0  0  0  0  0  0  0  0  0  0  0
    2.9937   -0.5744   -1.0923 O   0  0  0  0  0  0  0  0  0  0  0  0
   -3.8428    0.4467    0.9341 H   0  0  0  0  0  0  0  0  0  0  0  0
   -3.3979   -0.8293   -0.2119 H   0  0  0  0  0  0  0  0  0  0  0  0
   -3.3041    0.8752   -0.6986 H   0  0  0  0  0  0  0  0  0  0  0  0
   -1.6121   -0.4387    1.4851 H   0  0  0  0  0  0  0  0  0  0  0  0
   -1.5197    1.2578    1.0013 H   0  0  0  0  0  0  0  0  0  0  0  0
   -0.9745   -1.1294   -0.8412 H   0  0  0  0  0  0  0  0  0  0  0  0
   -0.8756    0.5569   -1.3188 H   0  0  0  0  0  0  0  0  0  0  0  0
    2.1428   -1.1413    1.2933 H   0  0  0  0  0  0  0  0  0  0  0  0
    0.7458   -2.1065    0.7959 H   0  0  0  0  0  0  0  0  0  0  0  0
    0.5612   -0.8079    1.9860 H   0  0  0  0  0  0  0  0  0  0  0  0
    1.0202    2.0448   -0.4136 H   0  0  0  0  0  0  0  0  0  0  0  0
    2.2790    1.3455    0.6158 H   0  0  0  0  0  0  0  0  0  0  0  0
    0.6746    1.6222    1.2710 H   0  0  0  0  0  0  0  0  0  0  0  0
    1.2877   -1.5169   -1.6735 H   0  0  0  0  0  0  0  0  0  0  0  0
    1.4204    0.1725   -2.1686 H   0  0  0  0  0  0  0  0  0  0  0  0
    3.3169    0.3390   -1.0184 H   0  0  0  0  0  0  0  0  0  0  0  0
  1  2  1  0
  2  3  1  0
  3  4  1  0
  4  5  1  0
  4  6  1  0
  4  7  1  0
  7  8  1  0
  1  9  1  0
  1 10  1  0
  1 11  1  0
  2 12  1  0
  2 13  1  0
  3 14  1  0
  3 15  1  0
  5 16  1  0
  5 17  1  0
  5 18  1  0
  6 19  1  0
  6 20  1  0
  6 21  1  0
  7 22  1  0
  7 23  1  0
  8 24  1  0
M  END
>  <Energy>  (9) 
14.429849058359778

>  <Real charge>  (9) 
0

>  <Mult>  (9) 
1

$$$$
