mol_824 225
     RDKit          3D

 30 30  0  0  0  0  0  0  0  0999 V2000
    4.8306    0.1060   -0.0532 C   0  0  0  0  0  0  0  0  0  0  0  0
    3.4551    0.1652   -0.6980 C   0  0  0  0  0  0  0  0  0  0  0  0
    2.3439    0.1625    0.3515 C   0  0  0  0  0  0  0  0  0  0  0  0
    0.9615    0.2224   -0.3015 C   0  0  0  0  0  0  0  0  0  0  0  0
   -0.1500    0.2183    0.7511 C   0  0  0  0  0  0  0  0  0  0  0  0
   -1.5437    0.3453    0.1334 C   0  0  0  0  0  0  0  0  0  0  0  0
   -2.6504    0.3664    1.1857 C   0  0  0  0  0  0  0  0  0  0  0  0
   -3.9144    0.1034    0.3788 C   0  0  0  0  0  0  0  0  0  0  0  0
   -3.4807   -0.7753   -0.7938 C   0  0  0  0  0  0  0  0  0  0  0  0
   -1.9551   -0.8355   -0.7452 C   0  0  0  0  0  0  0  0  0  0  0  0
    4.9453   -0.8045    0.5436 H   0  0  0  0  0  0  0  0  0  0  0  0
    5.6099    0.1089   -0.8216 H   0  0  0  0  0  0  0  0  0  0  0  0
    4.9949    0.9686    0.6005 H   0  0  0  0  0  0  0  0  0  0  0  0
    3.3355   -0.6932   -1.3693 H   0  0  0  0  0  0  0  0  0  0  0  0
    3.3847    1.0701   -1.3127 H   0  0  0  0  0  0  0  0  0  0  0  0
    2.4710    1.0205    1.0229 H   0  0  0  0  0  0  0  0  0  0  0  0
    2.4209   -0.7428    0.9660 H   0  0  0  0  0  0  0  0  0  0  0  0
    0.8840    1.1290   -0.9137 H   0  0  0  0  0  0  0  0  0  0  0  0
    0.8423   -0.6348   -0.9742 H   0  0  0  0  0  0  0  0  0  0  0  0
   -0.0852   -0.7016    1.3458 H   0  0  0  0  0  0  0  0  0  0  0  0
    0.0071    1.0534    1.4454 H   0  0  0  0  0  0  0  0  0  0  0  0
   -1.5971    1.2697   -0.4579 H   0  0  0  0  0  0  0  0  0  0  0  0
   -2.6979    1.3187    1.7226 H   0  0  0  0  0  0  0  0  0  0  0  0
   -2.5054   -0.4325    1.9233 H   0  0  0  0  0  0  0  0  0  0  0  0
   -4.6928   -0.3716    0.9839 H   0  0  0  0  0  0  0  0  0  0  0  0
   -4.3216    1.0483   -0.0001 H   0  0  0  0  0  0  0  0  0  0  0  0
   -3.9108   -1.7799   -0.7229 H   0  0  0  0  0  0  0  0  0  0  0  0
   -3.8240   -0.3387   -1.7384 H   0  0  0  0  0  0  0  0  0  0  0  0
   -1.6396   -1.7845   -0.2943 H   0  0  0  0  0  0  0  0  0  0  0  0
   -1.5182   -0.7816   -1.7473 H   0  0  0  0  0  0  0  0  0  0  0  0
  1  2  1  0
  2  3  1  0
  3  4  1  0
  4  5  1  0
  5  6  1  0
  6  7  1  0
  7  8  1  0
  8  9  1  0
  9 10  1  0
 10  6  1  0
  1 11  1  0
  1 12  1  0
  1 13  1  0
  2 14  1  0
  2 15  1  0
  3 16  1  0
  3 17  1  0
  4 18  1  0
  4 19  1  0
  5 20  1  0
  5 21  1  0
  6 22  1  0
  7 23  1  0
  7 24  1  0
  8 25  1  0
  8 26  1  0
  9 27  1  0
  9 28  1  0
 10 29  1  0
 10 30  1  0
M  END
>  <Energy>  (1) 
5.010108652470731

>  <Real charge>  (1) 
0

>  <Mult>  (1) 
1

$$$$
mol_824 202
     RDKit          3D

 30 30  0  0  0  0  0  0  0  0999 V2000
    4.0736    1.0050   -0.8736 C   0  0  0  0  0  0  0  0  0  0  0  0
    3.2968   -0.0319   -0.0780 C   0  0  0  0  0  0  0  0  0  0  0  0
    1.8535   -0.1494   -0.5698 C   0  0  0  0  0  0  0  0  0  0  0  0
    1.0765   -1.1907    0.2383 C   0  0  0  0  0  0  0  0  0  0  0  0
   -0.3413   -1.4386   -0.2881 C   0  0  0  0  0  0  0  0  0  0  0  0
   -1.2647   -0.2188   -0.2507 C   0  0  0  0  0  0  0  0  0  0  0  0
   -2.6892   -0.5510   -0.6931 C   0  0  0  0  0  0  0  0  0  0  0  0
   -3.5023    0.6445   -0.2141 C   0  0  0  0  0  0  0  0  0  0  0  0
   -2.7790    1.1695    1.0259 C   0  0  0  0  0  0  0  0  0  0  0  0
   -1.4886    0.3615    1.1445 C   0  0  0  0  0  0  0  0  0  0  0  0
    5.1023    1.0721   -0.5060 H   0  0  0  0  0  0  0  0  0  0  0  0
    3.6148    1.9946   -0.7817 H   0  0  0  0  0  0  0  0  0  0  0  0
    4.1088    0.7395   -1.9350 H   0  0  0  0  0  0  0  0  0  0  0  0
    3.3071    0.2463    0.9823 H   0  0  0  0  0  0  0  0  0  0  0  0
    3.8003   -1.0018   -0.1643 H   0  0  0  0  0  0  0  0  0  0  0  0
    1.3677    0.8293   -0.4874 H   0  0  0  0  0  0  0  0  0  0  0  0
    1.8484   -0.4278   -1.6305 H   0  0  0  0  0  0  0  0  0  0  0  0
    1.0372   -0.8891    1.2915 H   0  0  0  0  0  0  0  0  0  0  0  0
    1.6194   -2.1439    0.2094 H   0  0  0  0  0  0  0  0  0  0  0  0
   -0.7846   -2.2504    0.3031 H   0  0  0  0  0  0  0  0  0  0  0  0
   -0.2810   -1.8091   -1.3192 H   0  0  0  0  0  0  0  0  0  0  0  0
   -0.8719    0.5656   -0.9104 H   0  0  0  0  0  0  0  0  0  0  0  0
   -3.0490   -1.4650   -0.2046 H   0  0  0  0  0  0  0  0  0  0  0  0
   -2.7677   -0.6928   -1.7754 H   0  0  0  0  0  0  0  0  0  0  0  0
   -4.5398    0.3698    0.0003 H   0  0  0  0  0  0  0  0  0  0  0  0
   -3.5202    1.4220   -0.9870 H   0  0  0  0  0  0  0  0  0  0  0  0
   -2.5591    2.2365    0.9077 H   0  0  0  0  0  0  0  0  0  0  0  0
   -3.3920    1.0599    1.9265 H   0  0  0  0  0  0  0  0  0  0  0  0
   -1.6234   -0.4398    1.8815 H   0  0  0  0  0  0  0  0  0  0  0  0
   -0.6524    0.9841    1.4774 H   0  0  0  0  0  0  0  0  0  0  0  0
  1  2  1  0
  2  3  1  0
  3  4  1  0
  4  5  1  0
  5  6  1  0
  6  7  1  0
  7  8  1  0
  8  9  1  0
  9 10  1  0
 10  6  1  0
  1 11  1  0
  1 12  1  0
  1 13  1  0
  2 14  1  0
  2 15  1  0
  3 16  1  0
  3 17  1  0
  4 18  1  0
  4 19  1  0
  5 20  1  0
  5 21  1  0
  6 22  1  0
  7 23  1  0
  7 24  1  0
  8 25  1  0
  8 26  1  0
  9 27  1  0
  9 28  1  0
 10 29  1  0
 10 30  1  0
M  END
>  <Energy>  (2) 
5.65390371360053

>  <Real charge>  (2) 
0

>  <Mult>  (2) 
1

$$$$
mol_824 330
     RDKit          3D

 30 30  0  0  0  0  0  0  0  0999 V2000
    4.1524    0.4416    0.3077 C   0  0  0  0  0  0  0  0  0  0  0  0
    3.5718   -0.7319   -0.4662 C   0  0  0  0  0  0  0  0  0  0  0  0
    2.2363   -1.2302    0.0901 C   0  0  0  0  0  0  0  0  0  0  0  0
    1.1053   -0.2068   -0.0399 C   0  0  0  0  0  0  0  0  0  0  0  0
   -0.2284   -0.7949    0.4305 C   0  0  0  0  0  0  0  0  0  0  0  0
   -1.3686    0.2238    0.3819 C   0  0  0  0  0  0  0  0  0  0  0  0
   -1.7269    0.7039   -1.0240 C   0  0  0  0  0  0  0  0  0  0  0  0
   -3.1531    1.2379   -0.9043 C   0  0  0  0  0  0  0  0  0  0  0  0
   -3.7261    0.6498    0.3846 C   0  0  0  0  0  0  0  0  0  0  0  0
   -2.6932   -0.3567    0.8728 C   0  0  0  0  0  0  0  0  0  0  0  0
    5.1480    0.6878   -0.0751 H   0  0  0  0  0  0  0  0  0  0  0  0
    4.2483    0.2022    1.3714 H   0  0  0  0  0  0  0  0  0  0  0  0
    3.5299    1.3355    0.2081 H   0  0  0  0  0  0  0  0  0  0  0  0
    3.4565   -0.4526   -1.5199 H   0  0  0  0  0  0  0  0  0  0  0  0
    4.2909   -1.5592   -0.4349 H   0  0  0  0  0  0  0  0  0  0  0  0
    1.9585   -2.1423   -0.4527 H   0  0  0  0  0  0  0  0  0  0  0  0
    2.3598   -1.5142    1.1424 H   0  0  0  0  0  0  0  0  0  0  0  0
    1.3346    0.6831    0.5569 H   0  0  0  0  0  0  0  0  0  0  0  0
    1.0246    0.1122   -1.0853 H   0  0  0  0  0  0  0  0  0  0  0  0
   -0.4790   -1.6682   -0.1848 H   0  0  0  0  0  0  0  0  0  0  0  0
   -0.1199   -1.1565    1.4608 H   0  0  0  0  0  0  0  0  0  0  0  0
   -1.1083    1.0917    1.0032 H   0  0  0  0  0  0  0  0  0  0  0  0
   -1.0389    1.4724   -1.3900 H   0  0  0  0  0  0  0  0  0  0  0  0
   -1.7059   -0.1296   -1.7369 H   0  0  0  0  0  0  0  0  0  0  0  0
   -3.1567    2.3324   -0.8527 H   0  0  0  0  0  0  0  0  0  0  0  0
   -3.7494    0.9500   -1.7765 H   0  0  0  0  0  0  0  0  0  0  0  0
   -4.7044    0.1856    0.2263 H   0  0  0  0  0  0  0  0  0  0  0  0
   -3.8549    1.4461    1.1272 H   0  0  0  0  0  0  0  0  0  0  0  0
   -2.7195   -0.4757    1.9603 H   0  0  0  0  0  0  0  0  0  0  0  0
   -2.8839   -1.3371    0.4191 H   0  0  0  0  0  0  0  0  0  0  0  0
  1  2  1  0
  2  3  1  0
  3  4  1  0
  4  5  1  0
  5  6  1  0
  6  7  1  0
  7  8  1  0
  8  9  1  0
  9 10  1  0
 10  6  1  0
  1 11  1  0
  1 12  1  0
  1 13  1  0
  2 14  1  0
  2 15  1  0
  3 16  1  0
  3 17  1  0
  4 18  1  0
  4 19  1  0
  5 20  1  0
  5 21  1  0
  6 22  1  0
  7 23  1  0
  7 24  1  0
  8 25  1  0
  8 26  1  0
  9 27  1  0
  9 28  1  0
 10 29  1  0
 10 30  1  0
M  END
>  <Energy>  (3) 
5.8203311028749125

>  <Real charge>  (3) 
0

>  <Mult>  (3) 
1

$$$$
mol_824 317
     RDKit          3D

 30 30  0  0  0  0  0  0  0  0999 V2000
    3.8468    1.3376    0.1892 C   0  0  0  0  0  0  0  0  0  0  0  0
    3.6934   -0.1738    0.2626 C   0  0  0  0  0  0  0  0  0  0  0  0
    2.4421   -0.6965   -0.4464 C   0  0  0  0  0  0  0  0  0  0  0  0
    1.1372   -0.2416    0.2122 C   0  0  0  0  0  0  0  0  0  0  0  0
   -0.0775   -0.8763   -0.4717 C   0  0  0  0  0  0  0  0  0  0  0  0
   -1.3968   -0.4931    0.2013 C   0  0  0  0  0  0  0  0  0  0  0  0
   -1.7432    0.9927    0.1123 C   0  0  0  0  0  0  0  0  0  0  0  0
   -3.2542    1.0571    0.3276 C   0  0  0  0  0  0  0  0  0  0  0  0
   -3.7850   -0.3541    0.0791 C   0  0  0  0  0  0  0  0  0  0  0  0
   -2.6051   -1.1475   -0.4653 C   0  0  0  0  0  0  0  0  0  0  0  0
    3.8226    1.6854   -0.8483 H   0  0  0  0  0  0  0  0  0  0  0  0
    4.8048    1.6390    0.6251 H   0  0  0  0  0  0  0  0  0  0  0  0
    3.0556    1.8490    0.7451 H   0  0  0  0  0  0  0  0  0  0  0  0
    3.6870   -0.4893    1.3124 H   0  0  0  0  0  0  0  0  0  0  0  0
    4.5732   -0.6355   -0.2015 H   0  0  0  0  0  0  0  0  0  0  0  0
    2.4560   -0.3814   -1.4969 H   0  0  0  0  0  0  0  0  0  0  0  0
    2.4815   -1.7929   -0.4449 H   0  0  0  0  0  0  0  0  0  0  0  0
    1.1460   -0.5172    1.2735 H   0  0  0  0  0  0  0  0  0  0  0  0
    1.0571    0.8492    0.1583 H   0  0  0  0  0  0  0  0  0  0  0  0
   -0.0953   -0.5818   -1.5286 H   0  0  0  0  0  0  0  0  0  0  0  0
    0.0258   -1.9685   -0.4511 H   0  0  0  0  0  0  0  0  0  0  0  0
   -1.3671   -0.7931    1.2578 H   0  0  0  0  0  0  0  0  0  0  0  0
   -1.4967    1.3910   -0.8796 H   0  0  0  0  0  0  0  0  0  0  0  0
   -1.2054    1.5912    0.8543 H   0  0  0  0  0  0  0  0  0  0  0  0
   -3.4897    1.3734    1.3500 H   0  0  0  0  0  0  0  0  0  0  0  0
   -3.7119    1.7832   -0.3525 H   0  0  0  0  0  0  0  0  0  0  0  0
   -4.6336   -0.3596   -0.6119 H   0  0  0  0  0  0  0  0  0  0  0  0
   -4.1267   -0.7908    1.0250 H   0  0  0  0  0  0  0  0  0  0  0  0
   -2.6850   -2.2134   -0.2307 H   0  0  0  0  0  0  0  0  0  0  0  0
   -2.5559   -1.0424   -1.5561 H   0  0  0  0  0  0  0  0  0  0  0  0
  1  2  1  0
  2  3  1  0
  3  4  1  0
  4  5  1  0
  5  6  1  0
  6  7  1  0
  7  8  1  0
  8  9  1  0
  9 10  1  0
 10  6  1  0
  1 11  1  0
  1 12  1  0
  1 13  1  0
  2 14  1  0
  2 15  1  0
  3 16  1  0
  3 17  1  0
  4 18  1  0
  4 19  1  0
  5 20  1  0
  5 21  1  0
  6 22  1  0
  7 23  1  0
  7 24  1  0
  8 25  1  0
  8 26  1  0
  9 27  1  0
  9 28  1  0
 10 29  1  0
 10 30  1  0
M  END
>  <Energy>  (4) 
5.824273092924885

>  <Real charge>  (4) 
0

>  <Mult>  (4) 
1

$$$$
mol_824 11
     RDKit          3D

 30 30  0  0  0  0  0  0  0  0999 V2000
    4.5187   -0.2635   -0.2253 C   0  0  0  0  0  0  0  0  0  0  0  0
    3.0084   -0.4455   -0.2141 C   0  0  0  0  0  0  0  0  0  0  0  0
    2.3958    0.0621    1.0917 C   0  0  0  0  0  0  0  0  0  0  0  0
    0.8908   -0.2018    1.2006 C   0  0  0  0  0  0  0  0  0  0  0  0
    0.0632    0.5737    0.1714 C   0  0  0  0  0  0  0  0  0  0  0  0
   -1.4422    0.4360    0.4104 C   0  0  0  0  0  0  0  0  0  0  0  0
   -2.2708    1.2209   -0.6045 C   0  0  0  0  0  0  0  0  0  0  0  0
   -3.6718    0.6470   -0.4419 C   0  0  0  0  0  0  0  0  0  0  0  0
   -3.4767   -0.8067   -0.0125 C   0  0  0  0  0  0  0  0  0  0  0  0
   -1.9805   -0.9839    0.2384 C   0  0  0  0  0  0  0  0  0  0  0  0
    4.9373   -0.6289   -1.1683 H   0  0  0  0  0  0  0  0  0  0  0  0
    4.7870    0.7926   -0.1208 H   0  0  0  0  0  0  0  0  0  0  0  0
    4.9874   -0.8203    0.5923 H   0  0  0  0  0  0  0  0  0  0  0  0
    2.5851    0.0932   -1.0685 H   0  0  0  0  0  0  0  0  0  0  0  0
    2.7737   -1.5077   -0.3482 H   0  0  0  0  0  0  0  0  0  0  0  0
    2.5899    1.1363    1.1995 H   0  0  0  0  0  0  0  0  0  0  0  0
    2.8911   -0.4335    1.9361 H   0  0  0  0  0  0  0  0  0  0  0  0
    0.7042   -1.2774    1.1004 H   0  0  0  0  0  0  0  0  0  0  0  0
    0.5667    0.0836    2.2091 H   0  0  0  0  0  0  0  0  0  0  0  0
    0.3064    0.2268   -0.8396 H   0  0  0  0  0  0  0  0  0  0  0  0
    0.3332    1.6362    0.2160 H   0  0  0  0  0  0  0  0  0  0  0  0
   -1.6853    0.7934    1.4204 H   0  0  0  0  0  0  0  0  0  0  0  0
   -2.2458    2.2991   -0.4193 H   0  0  0  0  0  0  0  0  0  0  0  0
   -1.9112    1.0433   -1.6255 H   0  0  0  0  0  0  0  0  0  0  0  0
   -4.2131    1.1925    0.3402 H   0  0  0  0  0  0  0  0  0  0  0  0
   -4.2549    0.7292   -1.3644 H   0  0  0  0  0  0  0  0  0  0  0  0
   -3.8267   -1.5032   -0.7816 H   0  0  0  0  0  0  0  0  0  0  0  0
   -4.0510   -1.0099    0.8983 H   0  0  0  0  0  0  0  0  0  0  0  0
   -1.7905   -1.6110    1.1150 H   0  0  0  0  0  0  0  0  0  0  0  0
   -1.5184   -1.4727   -0.6282 H   0  0  0  0  0  0  0  0  0  0  0  0
  1  2  1  0
  2  3  1  0
  3  4  1  0
  4  5  1  0
  5  6  1  0
  6  7  1  0
  7  8  1  0
  8  9  1  0
  9 10  1  0
 10  6  1  0
  1 11  1  0
  1 12  1  0
  1 13  1  0
  2 14  1  0
  2 15  1  0
  3 16  1  0
  3 17  1  0
  4 18  1  0
  4 19  1  0
  5 20  1  0
  5 21  1  0
  6 22  1  0
  7 23  1  0
  7 24  1  0
  8 25  1  0
  8 26  1  0
  9 27  1  0
  9 28  1  0
 10 29  1  0
 10 30  1  0
M  END
>  <Energy>  (5) 
5.83029851880548

>  <Real charge>  (5) 
0

>  <Mult>  (5) 
1

$$$$
mol_824 34
     RDKit          3D

 30 30  0  0  0  0  0  0  0  0999 V2000
    4.5691    0.1254    0.8084 C   0  0  0  0  0  0  0  0  0  0  0  0
    3.1728    0.3988    0.2700 C   0  0  0  0  0  0  0  0  0  0  0  0
    2.3503   -0.8869    0.1766 C   0  0  0  0  0  0  0  0  0  0  0  0
    0.9762   -0.6872   -0.4708 C   0  0  0  0  0  0  0  0  0  0  0  0
    0.0293    0.1764    0.3676 C   0  0  0  0  0  0  0  0  0  0  0  0
   -1.3519    0.3250   -0.2756 C   0  0  0  0  0  0  0  0  0  0  0  0
   -2.2825    1.2201    0.5405 C   0  0  0  0  0  0  0  0  0  0  0  0
   -3.6580    0.9244   -0.0404 C   0  0  0  0  0  0  0  0  0  0  0  0
   -3.6090   -0.5350   -0.4899 C   0  0  0  0  0  0  0  0  0  0  0  0
   -2.1509   -0.9749   -0.3675 C   0  0  0  0  0  0  0  0  0  0  0  0
    5.1142   -0.5631    0.1547 H   0  0  0  0  0  0  0  0  0  0  0  0
    4.5239   -0.3140    1.8100 H   0  0  0  0  0  0  0  0  0  0  0  0
    5.1400    1.0570    0.8713 H   0  0  0  0  0  0  0  0  0  0  0  0
    2.6798    1.1205    0.9297 H   0  0  0  0  0  0  0  0  0  0  0  0
    3.2540    0.8625   -0.7198 H   0  0  0  0  0  0  0  0  0  0  0  0
    2.9043   -1.6221   -0.4205 H   0  0  0  0  0  0  0  0  0  0  0  0
    2.2266   -1.3219    1.1759 H   0  0  0  0  0  0  0  0  0  0  0  0
    1.0999   -0.2431   -1.4659 H   0  0  0  0  0  0  0  0  0  0  0  0
    0.5302   -1.6776   -0.6197 H   0  0  0  0  0  0  0  0  0  0  0  0
    0.4578    1.1769    0.4961 H   0  0  0  0  0  0  0  0  0  0  0  0
   -0.0688   -0.2575    1.3705 H   0  0  0  0  0  0  0  0  0  0  0  0
   -1.2406    0.7510   -1.2821 H   0  0  0  0  0  0  0  0  0  0  0  0
   -2.2583    0.9465    1.6025 H   0  0  0  0  0  0  0  0  0  0  0  0
   -2.0218    2.2796    0.4569 H   0  0  0  0  0  0  0  0  0  0  0  0
   -3.8460    1.5700   -0.9065 H   0  0  0  0  0  0  0  0  0  0  0  0
   -4.4561    1.1059    0.6858 H   0  0  0  0  0  0  0  0  0  0  0  0
   -3.9592   -0.6236   -1.5243 H   0  0  0  0  0  0  0  0  0  0  0  0
   -4.2558   -1.1660    0.1290 H   0  0  0  0  0  0  0  0  0  0  0  0
   -2.0241   -1.5750    0.5420 H   0  0  0  0  0  0  0  0  0  0  0  0
   -1.8452   -1.5921   -1.2182 H   0  0  0  0  0  0  0  0  0  0  0  0
  1  2  1  0
  2  3  1  0
  3  4  1  0
  4  5  1  0
  5  6  1  0
  6  7  1  0
  7  8  1  0
  8  9  1  0
  9 10  1  0
 10  6  1  0
  1 11  1  0
  1 12  1  0
  1 13  1  0
  2 14  1  0
  2 15  1  0
  3 16  1  0
  3 17  1  0
  4 18  1  0
  4 19  1  0
  5 20  1  0
  5 21  1  0
  6 22  1  0
  7 23  1  0
  7 24  1  0
  8 25  1  0
  8 26  1  0
  9 27  1  0
  9 28  1  0
 10 29  1  0
 10 30  1  0
M  END
>  <Energy>  (6) 
5.969455982599818

>  <Real charge>  (6) 
0

>  <Mult>  (6) 
1

$$$$
