mol_978 23
     RDKit          3D

 20 22  0  0  0  0  0  0  0  0999 V2000
   -0.2454    2.1881    0.3987 C   0  0  0  0  0  0  0  0  0  0  0  0
   -0.7191    0.7881    0.1635 C   0  0  0  0  0  0  0  0  0  0  0  0
   -2.0983    0.5137    0.1580 C   0  0  0  0  0  0  0  0  0  0  0  0
   -2.5943   -0.7856   -0.0585 C   0  0  0  0  0  0  0  0  0  0  0  0
   -1.7264   -1.8559   -0.2771 C   0  0  0  0  0  0  0  0  0  0  0  0
   -0.3665   -1.6029   -0.2748 C   0  0  0  0  0  0  0  0  0  0  0  0
    0.9380   -2.8154   -0.5326 S   0  0  0  0  0  0  0  0  0  0  0  0
    2.0855   -1.5408   -0.3411 C   0  0  0  0  0  0  0  0  0  0  0  0
    3.3869   -1.4548   -0.3667 N   0  0  0  0  0  0  0  0  0  0  0  0
    3.6852   -0.1151   -0.1368 N   0  0  0  0  0  0  0  0  0  0  0  0
    2.5472    0.5416    0.0164 C   0  0  0  0  0  0  0  0  0  0  0  0
    1.5148   -0.3281   -0.1064 N   0  0  0  0  0  0  0  0  0  0  0  0
    0.1231   -0.2974   -0.0570 C   0  0  0  0  0  0  0  0  0  0  0  0
   -1.0843    2.8765    0.5481 H   0  0  0  0  0  0  0  0  0  0  0  0
    0.3204    2.5497   -0.4654 H   0  0  0  0  0  0  0  0  0  0  0  0
    0.3761    2.2346    1.2982 H   0  0  0  0  0  0  0  0  0  0  0  0
   -2.8158    1.3172    0.3241 H   0  0  0  0  0  0  0  0  0  0  0  0
   -3.6694   -0.9560   -0.0551 H   0  0  0  0  0  0  0  0  0  0  0  0
   -2.1131   -2.8564   -0.4437 H   0  0  0  0  0  0  0  0  0  0  0  0
    2.4553    1.5988    0.2082 H   0  0  0  0  0  0  0  0  0  0  0  0
  1  2  1  0
  2  3  2  0
  3  4  1  0
  4  5  2  0
  5  6  1  0
  6  7  1  0
  7  8  1  0
  8  9  2  0
  9 10  1  0
 10 11  2  0
 11 12  1  0
 12 13  1  0
 12  8  1  0
 13  2  1  0
 13  6  2  0
  1 14  1  0
  1 15  1  0
  1 16  1  0
  3 17  1  0
  4 18  1  0
  5 19  1  0
 11 20  1  0
M  END
>  <Energy>  (1) 
41.04458500281568

>  <Real charge>  (1) 
0

>  <Mult>  (1) 
1

$$$$
