mol_953 78
     RDKit          3D

 26 27  0  0  0  0  0  0  0  0999 V2000
    4.5587    0.5366   -0.4079 C   0  0  0  0  0  0  0  0  0  0  0  0
    3.3282    0.6277    0.3290 N   0  0  0  0  0  0  0  0  0  0  0  0
    2.2075   -0.0622   -0.0453 C   0  0  0  0  0  0  0  0  0  0  0  0
    2.1124   -0.7273   -1.0672 O   0  0  0  0  0  0  0  0  0  0  0  0
    1.2302    0.1086    0.9209 O   0  0  0  0  0  0  0  0  0  0  0  0
    0.0259   -0.5507    0.6297 C   0  0  0  0  0  0  0  0  0  0  0  0
   -0.0672   -1.9118    0.9298 C   0  0  0  0  0  0  0  0  0  0  0  0
   -1.2634   -2.5796    0.6950 C   0  0  0  0  0  0  0  0  0  0  0  0
   -2.3599   -1.8843    0.1795 C   0  0  0  0  0  0  0  0  0  0  0  0
   -2.2806   -0.5090   -0.1055 C   0  0  0  0  0  0  0  0  0  0  0  0
   -3.3894    0.1883   -0.6131 C   0  0  0  0  0  0  0  0  0  0  0  0
   -3.3127    1.5540   -0.8889 C   0  0  0  0  0  0  0  0  0  0  0  0
   -2.1264    2.2424   -0.6610 C   0  0  0  0  0  0  0  0  0  0  0  0
   -1.0144    1.5649   -0.1584 C   0  0  0  0  0  0  0  0  0  0  0  0
   -1.0691    0.1835    0.1253 C   0  0  0  0  0  0  0  0  0  0  0  0
    4.3601    0.5034   -1.4824 H   0  0  0  0  0  0  0  0  0  0  0  0
    5.0789   -0.3763   -0.1062 H   0  0  0  0  0  0  0  0  0  0  0  0
    5.1730    1.4075   -0.1684 H   0  0  0  0  0  0  0  0  0  0  0  0
    3.3181    1.0251    1.2578 H   0  0  0  0  0  0  0  0  0  0  0  0
    0.7874   -2.4469    1.3320 H   0  0  0  0  0  0  0  0  0  0  0  0
   -1.3459   -3.6415    0.9106 H   0  0  0  0  0  0  0  0  0  0  0  0
   -3.2861   -2.4273    0.0021 H   0  0  0  0  0  0  0  0  0  0  0  0
   -4.3270   -0.3315   -0.7983 H   0  0  0  0  0  0  0  0  0  0  0  0
   -4.1796    2.0780   -1.2826 H   0  0  0  0  0  0  0  0  0  0  0  0
   -2.0627    3.3056   -0.8766 H   0  0  0  0  0  0  0  0  0  0  0  0
   -0.0961    2.1229    0.0085 H   0  0  0  0  0  0  0  0  0  0  0  0
  1  2  1  0
  2  3  1  0
  3  4  2  0
  3  5  1  0
  5  6  1  0
  6  7  2  0
  7  8  1  0
  8  9  2  0
  9 10  1  0
 10 11  2  0
 11 12  1  0
 12 13  2  0
 13 14  1  0
 14 15  2  0
 15  6  1  0
 15 10  1  0
  1 16  1  0
  1 17  1  0
  1 18  1  0
  2 19  1  0
  7 20  1  0
  8 21  1  0
  9 22  1  0
 11 23  1  0
 12 24  1  0
 13 25  1  0
 14 26  1  0
M  END
>  <Energy>  (1) 
0.4808435368277104

>  <Real charge>  (1) 
0

>  <Mult>  (1) 
1

$$$$
