mol_871 9
     RDKit          3D

 22 23  0  0  0  0  0  0  0  0999 V2000
    3.5066    0.5273    0.2653 C   0  0  0  0  0  0  0  0  0  0  0  0
    2.6976    1.4964   -0.3222 C   0  0  0  0  0  0  0  0  0  0  0  0
    1.3195    1.2880   -0.4266 C   0  0  0  0  0  0  0  0  0  0  0  0
    0.7260    0.1092    0.0549 C   0  0  0  0  0  0  0  0  0  0  0  0
    1.5607   -0.8550    0.6445 C   0  0  0  0  0  0  0  0  0  0  0  0
    2.9391   -0.6489    0.7487 C   0  0  0  0  0  0  0  0  0  0  0  0
   -0.7260   -0.1092   -0.0549 C   0  0  0  0  0  0  0  0  0  0  0  0
   -1.4977   -0.4293    1.0746 C   0  0  0  0  0  0  0  0  0  0  0  0
   -2.8761   -0.6361    0.9714 C   0  0  0  0  0  0  0  0  0  0  0  0
   -3.5066   -0.5273   -0.2653 C   0  0  0  0  0  0  0  0  0  0  0  0
   -2.7606   -0.2115   -1.3979 C   0  0  0  0  0  0  0  0  0  0  0  0
   -1.3825   -0.0038   -1.2926 C   0  0  0  0  0  0  0  0  0  0  0  0
    4.5783    0.6884    0.3464 H   0  0  0  0  0  0  0  0  0  0  0  0
    3.1362    2.4171   -0.6978 H   0  0  0  0  0  0  0  0  0  0  0  0
    0.7038    2.0630   -0.8788 H   0  0  0  0  0  0  0  0  0  0  0  0
    1.1390   -1.7859    1.0182 H   0  0  0  0  0  0  0  0  0  0  0  0
    3.5676   -1.4090    1.2050 H   0  0  0  0  0  0  0  0  0  0  0  0
   -1.0264   -0.5078    2.0523 H   0  0  0  0  0  0  0  0  0  0  0  0
   -3.4553   -0.8793    1.8583 H   0  0  0  0  0  0  0  0  0  0  0  0
   -4.5783   -0.6884   -0.3464 H   0  0  0  0  0  0  0  0  0  0  0  0
   -3.2486   -0.1287   -2.3655 H   0  0  0  0  0  0  0  0  0  0  0  0
   -0.8163    0.2307   -2.1918 H   0  0  0  0  0  0  0  0  0  0  0  0
  1  2  2  0
  2  3  1  0
  3  4  2  0
  4  5  1  0
  5  6  2  0
  4  7  1  0
  7  8  2  0
  8  9  1  0
  9 10  2  0
 10 11  1  0
 11 12  2  0
  6  1  1  0
 12  7  1  0
  1 13  1  0
  2 14  1  0
  3 15  1  0
  5 16  1  0
  6 17  1  0
  8 18  1  0
  9 19  1  0
 10 20  1  0
 11 21  1  0
 12 22  1  0
M  END
>  <Energy>  (1) 
39.32922809017337

>  <Real charge>  (1) 
0

>  <Mult>  (1) 
1

$$$$
