mol_573 55
     RDKit          3D

 14 14  0  0  0  0  0  0  0  0999 V2000
   -2.1626    0.7927   -0.2268 N   0  0  0  0  0  0  0  0  0  0  0  0
   -0.8543    0.3123   -0.0306 C   0  0  0  0  0  0  0  0  0  0  0  0
    0.1830    1.2294    0.1751 C   0  0  0  0  0  0  0  0  0  0  0  0
    1.5120    0.8027    0.2550 C   0  0  0  0  0  0  0  0  0  0  0  0
    1.8258   -0.5452    0.0927 C   0  0  0  0  0  0  0  0  0  0  0  0
    0.8118   -1.4665   -0.1643 C   0  0  0  0  0  0  0  0  0  0  0  0
   -0.5155   -1.0365   -0.2440 C   0  0  0  0  0  0  0  0  0  0  0  0
   -1.7414   -2.2115   -0.5776 Cl  0  0  0  0  0  0  0  0  0  0  0  0
   -2.8643    0.0627   -0.1193 H   0  0  0  0  0  0  0  0  0  0  0  0
   -2.3809    1.6316    0.3000 H   0  0  0  0  0  0  0  0  0  0  0  0
   -0.0369    2.2897    0.2704 H   0  0  0  0  0  0  0  0  0  0  0  0
    2.3032    1.5279    0.4298 H   0  0  0  0  0  0  0  0  0  0  0  0
    2.8601   -0.8751    0.1500 H   0  0  0  0  0  0  0  0  0  0  0  0
    1.0599   -2.5141   -0.3104 H   0  0  0  0  0  0  0  0  0  0  0  0
  1  2  1  0
  2  3  2  0
  3  4  1  0
  4  5  2  0
  5  6  1  0
  6  7  2  0
  7  8  1  0
  7  2  1  0
  1  9  1  0
  1 10  1  0
  3 11  1  0
  4 12  1  0
  5 13  1  0
  6 14  1  0
M  END
>  <Energy>  (1) 
30.414697406487562

>  <Real charge>  (1) 
0

>  <Mult>  (1) 
1

$$$$
