mol_439 141
     RDKit          3D

 17 16  0  0  0  0  0  0  0  0999 V2000
    2.0571    0.3294    0.0149 C   0  0  0  0  0  0  0  0  0  0  0  0
    0.8329   -0.4446    0.4920 C   0  0  0  0  0  0  0  0  0  0  0  0
   -0.4595   -0.2324   -0.3272 C   0  0  0  0  0  0  0  0  0  0  0  0
   -0.8698    1.2422   -0.3913 C   0  0  0  0  0  0  0  0  0  0  0  0
   -1.5961   -1.0524    0.2978 C   0  0  0  0  0  0  0  0  0  0  0  0
   -0.2217   -0.8259   -2.0110 Cl  0  0  0  0  0  0  0  0  0  0  0  0
    1.9015    1.4098    0.0845 H   0  0  0  0  0  0  0  0  0  0  0  0
    2.3216    0.0807   -1.0166 H   0  0  0  0  0  0  0  0  0  0  0  0
    2.9185    0.0827    0.6447 H   0  0  0  0  0  0  0  0  0  0  0  0
    0.6453   -0.1644    1.5370 H   0  0  0  0  0  0  0  0  0  0  0  0
    1.0865   -1.5128    0.5053 H   0  0  0  0  0  0  0  0  0  0  0  0
   -0.9814    1.6606    0.6153 H   0  0  0  0  0  0  0  0  0  0  0  0
   -0.1336    1.8510   -0.9267 H   0  0  0  0  0  0  0  0  0  0  0  0
   -1.8292    1.3662   -0.9072 H   0  0  0  0  0  0  0  0  0  0  0  0
   -1.7981   -0.7235    1.3237 H   0  0  0  0  0  0  0  0  0  0  0  0
   -2.5275   -0.9476   -0.2707 H   0  0  0  0  0  0  0  0  0  0  0  0
   -1.3467   -2.1190    0.3357 H   0  0  0  0  0  0  0  0  0  0  0  0
  1  2  1  0
  2  3  1  0
  3  4  1  0
  3  5  1  0
  3  6  1  0
  1  7  1  0
  1  8  1  0
  1  9  1  0
  2 10  1  0
  2 11  1  0
  4 12  1  0
  4 13  1  0
  4 14  1  0
  5 15  1  0
  5 16  1  0
  5 17  1  0
M  END
>  <Energy>  (1) 
8.019060879894267

>  <Real charge>  (1) 
0

>  <Mult>  (1) 
1

$$$$
mol_439 46
     RDKit          3D

 17 16  0  0  0  0  0  0  0  0999 V2000
    1.8480    0.1424    0.1683 C   0  0  0  0  0  0  0  0  0  0  0  0
    0.7713    0.0678   -0.9080 C   0  0  0  0  0  0  0  0  0  0  0  0
   -0.6767   -0.0494   -0.3862 C   0  0  0  0  0  0  0  0  0  0  0  0
   -1.0901    1.1709    0.4423 C   0  0  0  0  0  0  0  0  0  0  0  0
   -0.8952   -1.3328    0.4210 C   0  0  0  0  0  0  0  0  0  0  0  0
   -1.7643   -0.1218   -1.8296 Cl  0  0  0  0  0  0  0  0  0  0  0  0
    1.7171    1.0180    0.8102 H   0  0  0  0  0  0  0  0  0  0  0  0
    1.8551   -0.7536    0.7951 H   0  0  0  0  0  0  0  0  0  0  0  0
    2.8346    0.2232   -0.3004 H   0  0  0  0  0  0  0  0  0  0  0  0
    0.8629    0.9615   -1.5394 H   0  0  0  0  0  0  0  0  0  0  0  0
    0.9993   -0.7902   -1.5543 H   0  0  0  0  0  0  0  0  0  0  0  0
   -2.1503    1.1253    0.7180 H   0  0  0  0  0  0  0  0  0  0  0  0
   -0.9295    2.1025   -0.1121 H   0  0  0  0  0  0  0  0  0  0  0  0
   -0.5196    1.2350    1.3748 H   0  0  0  0  0  0  0  0  0  0  0  0
   -0.3204   -1.3236    1.3530 H   0  0  0  0  0  0  0  0  0  0  0  0
   -1.9493   -1.4565    0.6960 H   0  0  0  0  0  0  0  0  0  0  0  0
   -0.5931   -2.2189   -0.1489 H   0  0  0  0  0  0  0  0  0  0  0  0
  1  2  1  0
  2  3  1  0
  3  4  1  0
  3  5  1  0
  3  6  1  0
  1  7  1  0
  1  8  1  0
  1  9  1  0
  2 10  1  0
  2 11  1  0
  4 12  1  0
  4 13  1  0
  4 14  1  0
  5 15  1  0
  5 16  1  0
  5 17  1  0
M  END
>  <Energy>  (2) 
8.67192447355873

>  <Real charge>  (2) 
0

>  <Mult>  (2) 
1

$$$$
