mol_675 28
     RDKit          3D

 49 52  0  0  0  0  0  0  0  0999 V2000
   -3.9684    0.9422    1.6159 C   0  0  0  0  0  0  0  0  0  0  0  0
   -2.8901    0.1945    0.8096 C   0  0  0  0  0  0  0  0  0  0  0  0
   -2.0247   -0.6130    1.7754 C   0  0  0  0  0  0  0  0  0  0  0  0
   -0.7845   -1.2080    1.1266 C   0  0  0  0  0  0  0  0  0  0  0  0
    0.0913   -0.1161    0.4909 C   0  0  0  0  0  0  0  0  0  0  0  0
   -0.7126    0.6190   -0.6040 C   0  0  0  0  0  0  0  0  0  0  0  0
    0.1150    1.7894   -1.1736 C   0  0  0  0  0  0  0  0  0  0  0  0
    1.5587    1.4738   -1.3937 C   0  0  0  0  0  0  0  0  0  0  0  0
    2.1857    0.3866   -0.9124 C   0  0  0  0  0  0  0  0  0  0  0  0
    3.6555    0.1592   -1.2117 C   0  0  0  0  0  0  0  0  0  0  0  0
    4.4720   -0.1626    0.0448 C   0  0  0  0  0  0  0  0  0  0  0  0
    4.5885    0.9839    0.8896 O   0  0  0  0  0  0  0  0  0  0  0  0
    3.8382   -1.2971    0.8427 C   0  0  0  0  0  0  0  0  0  0  0  0
    2.3745   -0.9988    1.1844 C   0  0  0  0  0  0  0  0  0  0  0  0
    1.4783   -0.6626   -0.0461 C   0  0  0  0  0  0  0  0  0  0  0  0
    1.2870   -1.9372   -0.9042 C   0  0  0  0  0  0  0  0  0  0  0  0
   -2.0948    1.1500   -0.1137 C   0  0  0  0  0  0  0  0  0  0  0  0
   -3.0474    1.3614   -1.3076 C   0  0  0  0  0  0  0  0  0  0  0  0
   -3.6594   -0.0110   -1.5778 C   0  0  0  0  0  0  0  0  0  0  0  0
   -3.6177   -0.6639   -0.2180 C   0  0  0  0  0  0  0  0  0  0  0  0
   -4.1277   -1.7519    0.0202 O   0  0  0  0  0  0  0  0  0  0  0  0
   -3.5169    1.6972    2.2688 H   0  0  0  0  0  0  0  0  0  0  0  0
   -4.6991    1.4464    0.9748 H   0  0  0  0  0  0  0  0  0  0  0  0
   -4.5344    0.2469    2.2473 H   0  0  0  0  0  0  0  0  0  0  0  0
   -1.7038    0.0302    2.6058 H   0  0  0  0  0  0  0  0  0  0  0  0
   -2.6103   -1.4259    2.2231 H   0  0  0  0  0  0  0  0  0  0  0  0
   -1.0956   -1.9433    0.3758 H   0  0  0  0  0  0  0  0  0  0  0  0
   -0.2270   -1.7523    1.8954 H   0  0  0  0  0  0  0  0  0  0  0  0
    0.3110    0.6254    1.2747 H   0  0  0  0  0  0  0  0  0  0  0  0
   -0.8843   -0.0932   -1.4216 H   0  0  0  0  0  0  0  0  0  0  0  0
   -0.3155    2.1070   -2.1301 H   0  0  0  0  0  0  0  0  0  0  0  0
    0.0664    2.6556   -0.5020 H   0  0  0  0  0  0  0  0  0  0  0  0
    2.1102    2.1996   -1.9881 H   0  0  0  0  0  0  0  0  0  0  0  0
    4.0858    1.0424   -1.7003 H   0  0  0  0  0  0  0  0  0  0  0  0
    3.7457   -0.6684   -1.9252 H   0  0  0  0  0  0  0  0  0  0  0  0
    5.4895   -0.4464   -0.2459 H   0  0  0  0  0  0  0  0  0  0  0  0
    4.7839    1.7513    0.3263 H   0  0  0  0  0  0  0  0  0  0  0  0
    3.9074   -2.2345    0.2794 H   0  0  0  0  0  0  0  0  0  0  0  0
    4.3887   -1.4426    1.7801 H   0  0  0  0  0  0  0  0  0  0  0  0
    1.9727   -1.8642    1.7245 H   0  0  0  0  0  0  0  0  0  0  0  0
    2.3537   -0.1604    1.8938 H   0  0  0  0  0  0  0  0  0  0  0  0
    0.5918   -1.7674   -1.7330 H   0  0  0  0  0  0  0  0  0  0  0  0
    2.2254   -2.2869   -1.3472 H   0  0  0  0  0  0  0  0  0  0  0  0
    0.9021   -2.7711   -0.3077 H   0  0  0  0  0  0  0  0  0  0  0  0
   -1.9353    2.1045    0.4045 H   0  0  0  0  0  0  0  0  0  0  0  0
   -2.5569    1.7619   -2.1991 H   0  0  0  0  0  0  0  0  0  0  0  0
   -3.8365    2.0733   -1.0370 H   0  0  0  0  0  0  0  0  0  0  0  0
   -3.0503   -0.5942   -2.2735 H   0  0  0  0  0  0  0  0  0  0  0  0
   -4.6861    0.0714   -1.9413 H   0  0  0  0  0  0  0  0  0  0  0  0
  1  2  1  0
  2  3  1  0
  3  4  1  0
  4  5  1  0
  5  6  1  0
  6  7  1  0
  7  8  1  0
  8  9  2  0
  9 10  1  0
 10 11  1  0
 11 12  1  0
 11 13  1  0
 13 14  1  0
 14 15  1  0
 15 16  1  0
  6 17  1  0
 17 18  1  0
 18 19  1  0
 19 20  1  0
 20 21  2  0
 15  5  1  0
 15  9  1  0
 17  2  1  0
 20  2  1  0
  1 22  1  0
  1 23  1  0
  1 24  1  0
  3 25  1  0
  3 26  1  0
  4 27  1  0
  4 28  1  0
  5 29  1  0
  6 30  1  0
  7 31  1  0
  7 32  1  0
  8 33  1  0
 10 34  1  0
 10 35  1  0
 11 36  1  0
 12 37  1  0
 13 38  1  0
 13 39  1  0
 14 40  1  0
 14 41  1  0
 16 42  1  0
 16 43  1  0
 16 44  1  0
 17 45  1  0
 18 46  1  0
 18 47  1  0
 19 48  1  0
 19 49  1  0
M  END
>  <Energy>  (1) 
70.74988540241067

>  <Real charge>  (1) 
0

>  <Mult>  (1) 
1

$$$$
mol_675 102
     RDKit          3D

 49 52  0  0  0  0  0  0  0  0999 V2000
   -3.5064   -1.5619    0.3928 C   0  0  0  0  0  0  0  0  0  0  0  0
   -2.9858   -0.3551   -0.3881 C   0  0  0  0  0  0  0  0  0  0  0  0
   -2.1200   -0.7653   -1.5870 C   0  0  0  0  0  0  0  0  0  0  0  0
   -0.7296   -1.2294   -1.1727 C   0  0  0  0  0  0  0  0  0  0  0  0
    0.0288   -0.1591   -0.3610 C   0  0  0  0  0  0  0  0  0  0  0  0
   -0.8042    0.2869    0.8651 C   0  0  0  0  0  0  0  0  0  0  0  0
   -0.0978    1.4263    1.6191 C   0  0  0  0  0  0  0  0  0  0  0  0
    1.3763    1.2367    1.7694 C   0  0  0  0  0  0  0  0  0  0  0  0
    2.1057    0.3396    1.0837 C   0  0  0  0  0  0  0  0  0  0  0  0
    3.6025    0.2414    1.3141 C   0  0  0  0  0  0  0  0  0  0  0  0
    4.4037    0.2565    0.0073 C   0  0  0  0  0  0  0  0  0  0  0  0
    4.3548    1.5444   -0.6098 O   0  0  0  0  0  0  0  0  0  0  0  0
    3.8768   -0.7797   -0.9798 C   0  0  0  0  0  0  0  0  0  0  0  0
    2.3769   -0.6025   -1.2386 C   0  0  0  0  0  0  0  0  0  0  0  0
    1.4947   -0.6114    0.0462 C   0  0  0  0  0  0  0  0  0  0  0  0
    1.4955   -2.0352    0.6566 C   0  0  0  0  0  0  0  0  0  0  0  0
   -2.2710    0.6587    0.5356 C   0  0  0  0  0  0  0  0  0  0  0  0
   -2.4854    2.0053   -0.1747 C   0  0  0  0  0  0  0  0  0  0  0  0
   -3.9318    1.9595   -0.6546 C   0  0  0  0  0  0  0  0  0  0  0  0
   -4.1414    0.4899   -0.9082 C   0  0  0  0  0  0  0  0  0  0  0  0
   -5.1314    0.0386   -1.4715 O   0  0  0  0  0  0  0  0  0  0  0  0
   -4.0343   -2.2605   -0.2662 H   0  0  0  0  0  0  0  0  0  0  0  0
   -4.2191   -1.2546    1.1669 H   0  0  0  0  0  0  0  0  0  0  0  0
   -2.6961   -2.1097    0.8838 H   0  0  0  0  0  0  0  0  0  0  0  0
   -2.0163    0.0679   -2.2948 H   0  0  0  0  0  0  0  0  0  0  0  0
   -2.6158   -1.5655   -2.1517 H   0  0  0  0  0  0  0  0  0  0  0  0
   -0.8342   -2.1529   -0.5937 H   0  0  0  0  0  0  0  0  0  0  0  0
   -0.1704   -1.4858   -2.0786 H   0  0  0  0  0  0  0  0  0  0  0  0
    0.1293    0.7230   -1.0113 H   0  0  0  0  0  0  0  0  0  0  0  0
   -0.8563   -0.5709    1.5503 H   0  0  0  0  0  0  0  0  0  0  0  0
   -0.5480    1.5255    2.6142 H   0  0  0  0  0  0  0  0  0  0  0  0
   -0.2368    2.3857    1.1100 H   0  0  0  0  0  0  0  0  0  0  0  0
    1.8619    1.8998    2.4826 H   0  0  0  0  0  0  0  0  0  0  0  0
    3.9445    1.0667    1.9513 H   0  0  0  0  0  0  0  0  0  0  0  0
    3.8160   -0.6846    1.8607 H   0  0  0  0  0  0  0  0  0  0  0  0
    5.4574    0.0492    0.2247 H   0  0  0  0  0  0  0  0  0  0  0  0
    4.4907    2.2125    0.0828 H   0  0  0  0  0  0  0  0  0  0  0  0
    4.0748   -1.7895   -0.6031 H   0  0  0  0  0  0  0  0  0  0  0  0
    4.4058   -0.6824   -1.9357 H   0  0  0  0  0  0  0  0  0  0  0  0
    2.2327    0.3443   -1.7765 H   0  0  0  0  0  0  0  0  0  0  0  0
    2.0572   -1.3946   -1.9260 H   0  0  0  0  0  0  0  0  0  0  0  0
    0.7982   -2.1155    1.4972 H   0  0  0  0  0  0  0  0  0  0  0  0
    1.2195   -2.7926   -0.0846 H   0  0  0  0  0  0  0  0  0  0  0  0
    2.4802   -2.3283    1.0353 H   0  0  0  0  0  0  0  0  0  0  0  0
   -2.8145    0.7186    1.4913 H   0  0  0  0  0  0  0  0  0  0  0  0
   -2.3336    2.8600    0.4917 H   0  0  0  0  0  0  0  0  0  0  0  0
   -1.8070    2.1212   -1.0275 H   0  0  0  0  0  0  0  0  0  0  0  0
   -4.0749    2.5435   -1.5662 H   0  0  0  0  0  0  0  0  0  0  0  0
   -4.6217    2.2855    0.1290 H   0  0  0  0  0  0  0  0  0  0  0  0
  1  2  1  0
  2  3  1  0
  3  4  1  0
  4  5  1  0
  5  6  1  0
  6  7  1  0
  7  8  1  0
  8  9  2  0
  9 10  1  0
 10 11  1  0
 11 12  1  0
 11 13  1  0
 13 14  1  0
 14 15  1  0
 15 16  1  0
  6 17  1  0
 17 18  1  0
 18 19  1  0
 19 20  1  0
 20 21  2  0
 15  5  1  0
 15  9  1  0
 17  2  1  0
 20  2  1  0
  1 22  1  0
  1 23  1  0
  1 24  1  0
  3 25  1  0
  3 26  1  0
  4 27  1  0
  4 28  1  0
  5 29  1  0
  6 30  1  0
  7 31  1  0
  7 32  1  0
  8 33  1  0
 10 34  1  0
 10 35  1  0
 11 36  1  0
 12 37  1  0
 13 38  1  0
 13 39  1  0
 14 40  1  0
 14 41  1  0
 16 42  1  0
 16 43  1  0
 16 44  1  0
 17 45  1  0
 18 46  1  0
 18 47  1  0
 19 48  1  0
 19 49  1  0
M  END
>  <Energy>  (2) 
70.75203068667645

>  <Real charge>  (2) 
0

>  <Mult>  (2) 
1

$$$$
mol_675 22
     RDKit          3D

 49 52  0  0  0  0  0  0  0  0999 V2000
    4.1950    1.3928    0.4770 C   0  0  0  0  0  0  0  0  0  0  0  0
    2.9987    0.5944   -0.0736 C   0  0  0  0  0  0  0  0  0  0  0  0
    2.1666    1.5095   -0.9703 C   0  0  0  0  0  0  0  0  0  0  0  0
    0.8346    0.9040   -1.3856 C   0  0  0  0  0  0  0  0  0  0  0  0
   -0.0138    0.5287   -0.1601 C   0  0  0  0  0  0  0  0  0  0  0  0
    0.7398   -0.5170    0.6910 C   0  0  0  0  0  0  0  0  0  0  0  0
   -0.0491   -0.8166    1.9826 C   0  0  0  0  0  0  0  0  0  0  0  0
   -1.5254   -0.9399    1.7872 C   0  0  0  0  0  0  0  0  0  0  0  0
   -2.1815   -0.5730    0.6735 C   0  0  0  0  0  0  0  0  0  0  0  0
   -3.6794   -0.7656    0.5728 C   0  0  0  0  0  0  0  0  0  0  0  0
   -4.3955    0.5127    0.1346 C   0  0  0  0  0  0  0  0  0  0  0  0
   -5.7770    0.2459   -0.0964 O   0  0  0  0  0  0  0  0  0  0  0  0
   -3.7899    1.0640   -1.1514 C   0  0  0  0  0  0  0  0  0  0  0  0
   -2.2877    1.3036   -1.0004 C   0  0  0  0  0  0  0  0  0  0  0  0
   -1.4778    0.0543   -0.5363 C   0  0  0  0  0  0  0  0  0  0  0  0
   -1.4558   -0.9951   -1.6743 C   0  0  0  0  0  0  0  0  0  0  0  0
    2.1953   -0.0931    1.0579 C   0  0  0  0  0  0  0  0  0  0  0  0
    3.0501   -1.3311    1.3958 C   0  0  0  0  0  0  0  0  0  0  0  0
    3.5348   -1.8616    0.0486 C   0  0  0  0  0  0  0  0  0  0  0  0
    3.5691   -0.6162   -0.8026 C   0  0  0  0  0  0  0  0  0  0  0  0
    4.0201   -0.5930   -1.9413 O   0  0  0  0  0  0  0  0  0  0  0  0
    4.7637    1.8542   -0.3392 H   0  0  0  0  0  0  0  0  0  0  0  0
    4.8999    0.7652    1.0323 H   0  0  0  0  0  0  0  0  0  0  0  0
    3.8585    2.1926    1.1458 H   0  0  0  0  0  0  0  0  0  0  0  0
    1.9672    2.4539   -0.4465 H   0  0  0  0  0  0  0  0  0  0  0  0
    2.7299    1.7712   -1.8750 H   0  0  0  0  0  0  0  0  0  0  0  0
    0.3095    1.6335   -2.0105 H   0  0  0  0  0  0  0  0  0  0  0  0
    1.0249    0.0245   -2.0113 H   0  0  0  0  0  0  0  0  0  0  0  0
   -0.1099    1.4329    0.4609 H   0  0  0  0  0  0  0  0  0  0  0  0
    0.7850   -1.4461    0.1080 H   0  0  0  0  0  0  0  0  0  0  0  0
    0.1198   -0.0282    2.7266 H   0  0  0  0  0  0  0  0  0  0  0  0
    0.3172   -1.7506    2.4235 H   0  0  0  0  0  0  0  0  0  0  0  0
   -2.0749   -1.3651    2.6252 H   0  0  0  0  0  0  0  0  0  0  0  0
   -3.9010   -1.5771   -0.1318 H   0  0  0  0  0  0  0  0  0  0  0  0
   -4.1063   -1.0983    1.5278 H   0  0  0  0  0  0  0  0  0  0  0  0
   -4.3301    1.2712    0.9244 H   0  0  0  0  0  0  0  0  0  0  0  0
   -6.1579   -0.0658    0.7424 H   0  0  0  0  0  0  0  0  0  0  0  0
   -3.9908    0.3830   -1.9876 H   0  0  0  0  0  0  0  0  0  0  0  0
   -4.2895    2.0039   -1.4176 H   0  0  0  0  0  0  0  0  0  0  0  0
   -2.1494    2.1191   -0.2774 H   0  0  0  0  0  0  0  0  0  0  0  0
   -1.9050    1.6741   -1.9585 H   0  0  0  0  0  0  0  0  0  0  0  0
   -2.4524   -1.3901   -1.8976 H   0  0  0  0  0  0  0  0  0  0  0  0
   -0.8258   -1.8542   -1.4209 H   0  0  0  0  0  0  0  0  0  0  0  0
   -1.0811   -0.5672   -2.6102 H   0  0  0  0  0  0  0  0  0  0  0  0
    2.1528    0.5744    1.9283 H   0  0  0  0  0  0  0  0  0  0  0  0
    3.9096   -1.0377    2.0105 H   0  0  0  0  0  0  0  0  0  0  0  0
    2.5118   -2.1000    1.9570 H   0  0  0  0  0  0  0  0  0  0  0  0
    2.8250   -2.5715   -0.3843 H   0  0  0  0  0  0  0  0  0  0  0  0
    4.5278   -2.3098    0.1270 H   0  0  0  0  0  0  0  0  0  0  0  0
  1  2  1  0
  2  3  1  0
  3  4  1  0
  4  5  1  0
  5  6  1  0
  6  7  1  0
  7  8  1  0
  8  9  2  0
  9 10  1  0
 10 11  1  0
 11 12  1  0
 11 13  1  0
 13 14  1  0
 14 15  1  0
 15 16  1  0
  6 17  1  0
 17 18  1  0
 18 19  1  0
 19 20  1  0
 20 21  2  0
 15  5  1  0
 15  9  1  0
 17  2  1  0
 20  2  1  0
  1 22  1  0
  1 23  1  0
  1 24  1  0
  3 25  1  0
  3 26  1  0
  4 27  1  0
  4 28  1  0
  5 29  1  0
  6 30  1  0
  7 31  1  0
  7 32  1  0
  8 33  1  0
 10 34  1  0
 10 35  1  0
 11 36  1  0
 12 37  1  0
 13 38  1  0
 13 39  1  0
 14 40  1  0
 14 41  1  0
 16 42  1  0
 16 43  1  0
 16 44  1  0
 17 45  1  0
 18 46  1  0
 18 47  1  0
 19 48  1  0
 19 49  1  0
M  END
>  <Energy>  (3) 
70.9445178618271

>  <Real charge>  (3) 
0

>  <Mult>  (3) 
1

$$$$
mol_675 70
     RDKit          3D

 49 52  0  0  0  0  0  0  0  0999 V2000
   -4.0917    1.6099    0.2380 C   0  0  0  0  0  0  0  0  0  0  0  0
   -2.9169    0.7141   -0.1969 C   0  0  0  0  0  0  0  0  0  0  0  0
   -1.9769    1.5302   -1.0824 C   0  0  0  0  0  0  0  0  0  0  0  0
   -0.6629    0.8258   -1.3836 C   0  0  0  0  0  0  0  0  0  0  0  0
    0.0852    0.4637   -0.0904 C   0  0  0  0  0  0  0  0  0  0  0  0
   -0.7830   -0.4905    0.7590 C   0  0  0  0  0  0  0  0  0  0  0  0
   -0.0930   -0.7735    2.1091 C   0  0  0  0  0  0  0  0  0  0  0  0
    1.3808   -0.9935    2.0113 C   0  0  0  0  0  0  0  0  0  0  0  0
    2.1267   -0.7204    0.9269 C   0  0  0  0  0  0  0  0  0  0  0  0
    3.6201   -0.9999    0.9426 C   0  0  0  0  0  0  0  0  0  0  0  0
    4.4593    0.1785    0.4400 C   0  0  0  0  0  0  0  0  0  0  0  0
    4.4616    1.2161    1.4217 O   0  0  0  0  0  0  0  0  0  0  0  0
    3.9385    0.7135   -0.8907 C   0  0  0  0  0  0  0  0  0  0  0  0
    2.4479    1.0576   -0.8215 C   0  0  0  0  0  0  0  0  0  0  0  0
    1.5369   -0.1157   -0.3506 C   0  0  0  0  0  0  0  0  0  0  0  0
    1.5161   -1.2201   -1.4354 C   0  0  0  0  0  0  0  0  0  0  0  0
   -2.2274    0.0394    1.0144 C   0  0  0  0  0  0  0  0  0  0  0  0
   -3.1778   -1.1251    1.3581 C   0  0  0  0  0  0  0  0  0  0  0  0
   -3.6143   -1.6951    0.0105 C   0  0  0  0  0  0  0  0  0  0  0  0
   -3.5170   -0.4967   -0.9012 C   0  0  0  0  0  0  0  0  0  0  0  0
   -3.8947   -0.5069   -2.0665 O   0  0  0  0  0  0  0  0  0  0  0  0
   -3.7465    2.4216    0.8877 H   0  0  0  0  0  0  0  0  0  0  0  0
   -4.5800    2.0618   -0.6337 H   0  0  0  0  0  0  0  0  0  0  0  0
   -4.8669    1.0551    0.7768 H   0  0  0  0  0  0  0  0  0  0  0  0
   -2.4675    1.7779   -2.0323 H   0  0  0  0  0  0  0  0  0  0  0  0
   -1.7503    2.4869   -0.5931 H   0  0  0  0  0  0  0  0  0  0  0  0
   -0.0571    1.4899   -2.0083 H   0  0  0  0  0  0  0  0  0  0  0  0
   -0.8698   -0.0716   -1.9778 H   0  0  0  0  0  0  0  0  0  0  0  0
    0.2003    1.3911    0.4921 H   0  0  0  0  0  0  0  0  0  0  0  0
   -0.8531   -1.4428    0.2175 H   0  0  0  0  0  0  0  0  0  0  0  0
   -0.2564    0.0587    2.8050 H   0  0  0  0  0  0  0  0  0  0  0  0
   -0.5423   -1.6617    2.5678 H   0  0  0  0  0  0  0  0  0  0  0  0
    1.8557   -1.3965    2.9040 H   0  0  0  0  0  0  0  0  0  0  0  0
    3.8153   -1.8764    0.3131 H   0  0  0  0  0  0  0  0  0  0  0  0
    3.9481   -1.2600    1.9570 H   0  0  0  0  0  0  0  0  0  0  0  0
    5.4991   -0.1474    0.3227 H   0  0  0  0  0  0  0  0  0  0  0  0
    4.9783    1.9581    1.0652 H   0  0  0  0  0  0  0  0  0  0  0  0
    4.4898    1.6198   -1.1687 H   0  0  0  0  0  0  0  0  0  0  0  0
    4.1150   -0.0236   -1.6821 H   0  0  0  0  0  0  0  0  0  0  0  0
    2.1379    1.4075   -1.8131 H   0  0  0  0  0  0  0  0  0  0  0  0
    2.3259    1.9133   -0.1435 H   0  0  0  0  0  0  0  0  0  0  0  0
    1.2335   -0.8183   -2.4142 H   0  0  0  0  0  0  0  0  0  0  0  0
    2.4949   -1.6924   -1.5697 H   0  0  0  0  0  0  0  0  0  0  0  0
    0.8127   -2.0211   -1.1848 H   0  0  0  0  0  0  0  0  0  0  0  0
   -2.1937    0.7477    1.8524 H   0  0  0  0  0  0  0  0  0  0  0  0
   -2.7241   -1.8947    1.9886 H   0  0  0  0  0  0  0  0  0  0  0  0
   -4.0520   -0.7483    1.9027 H   0  0  0  0  0  0  0  0  0  0  0  0
   -2.9271   -2.4692   -0.3414 H   0  0  0  0  0  0  0  0  0  0  0  0
   -4.6371   -2.0767    0.0479 H   0  0  0  0  0  0  0  0  0  0  0  0
  1  2  1  0
  2  3  1  0
  3  4  1  0
  4  5  1  0
  5  6  1  0
  6  7  1  0
  7  8  1  0
  8  9  2  0
  9 10  1  0
 10 11  1  0
 11 12  1  0
 11 13  1  0
 13 14  1  0
 14 15  1  0
 15 16  1  0
  6 17  1  0
 17 18  1  0
 18 19  1  0
 19 20  1  0
 20 21  2  0
 15  5  1  0
 15  9  1  0
 17  2  1  0
 20  2  1  0
  1 22  1  0
  1 23  1  0
  1 24  1  0
  3 25  1  0
  3 26  1  0
  4 27  1  0
  4 28  1  0
  5 29  1  0
  6 30  1  0
  7 31  1  0
  7 32  1  0
  8 33  1  0
 10 34  1  0
 10 35  1  0
 11 36  1  0
 12 37  1  0
 13 38  1  0
 13 39  1  0
 14 40  1  0
 14 41  1  0
 16 42  1  0
 16 43  1  0
 16 44  1  0
 17 45  1  0
 18 46  1  0
 18 47  1  0
 19 48  1  0
 19 49  1  0
M  END
>  <Energy>  (4) 
71.23931582775978

>  <Real charge>  (4) 
0

>  <Mult>  (4) 
1

$$$$
mol_675 243
     RDKit          3D

 49 52  0  0  0  0  0  0  0  0999 V2000
   -3.2130    0.0332   -2.1254 C   0  0  0  0  0  0  0  0  0  0  0  0
   -2.9885   -0.1633   -0.6259 C   0  0  0  0  0  0  0  0  0  0  0  0
   -2.3104   -1.5029   -0.3081 C   0  0  0  0  0  0  0  0  0  0  0  0
   -0.8233   -1.4981   -0.6371 C   0  0  0  0  0  0  0  0  0  0  0  0
   -0.0634   -0.3757    0.0990 C   0  0  0  0  0  0  0  0  0  0  0  0
   -0.7085    1.0013   -0.1915 C   0  0  0  0  0  0  0  0  0  0  0  0
   -0.0183    2.1090    0.6229 C   0  0  0  0  0  0  0  0  0  0  0  0
    1.4709    1.9969    0.6622 C   0  0  0  0  0  0  0  0  0  0  0  0
    2.1655    0.9059    0.2977 C   0  0  0  0  0  0  0  0  0  0  0  0
    3.6776    0.9085    0.3810 C   0  0  0  0  0  0  0  0  0  0  0  0
    4.2170   -0.3159    1.1226 C   0  0  0  0  0  0  0  0  0  0  0  0
    5.6412   -0.3442    1.0487 O   0  0  0  0  0  0  0  0  0  0  0  0
    3.6555   -1.6100    0.5413 C   0  0  0  0  0  0  0  0  0  0  0  0
    2.1270   -1.5990    0.5348 C   0  0  0  0  0  0  0  0  0  0  0  0
    1.4948   -0.3797   -0.2028 C   0  0  0  0  0  0  0  0  0  0  0  0
    1.7751   -0.4976   -1.7214 C   0  0  0  0  0  0  0  0  0  0  0  0
   -2.2445    1.0379    0.0029 C   0  0  0  0  0  0  0  0  0  0  0  0
   -2.7432    1.0482    1.4572 C   0  0  0  0  0  0  0  0  0  0  0  0
   -4.2367    0.7603    1.3520 C   0  0  0  0  0  0  0  0  0  0  0  0
   -4.3110   -0.1140    0.1281 C   0  0  0  0  0  0  0  0  0  0  0  0
   -5.3239   -0.7145   -0.2098 O   0  0  0  0  0  0  0  0  0  0  0  0
   -3.7638   -0.8108   -2.5558 H   0  0  0  0  0  0  0  0  0  0  0  0
   -2.2684    0.1309   -2.6692 H   0  0  0  0  0  0  0  0  0  0  0  0
   -3.8064    0.9337   -2.3218 H   0  0  0  0  0  0  0  0  0  0  0  0
   -2.8017   -2.3130   -0.8625 H   0  0  0  0  0  0  0  0  0  0  0  0
   -2.4354   -1.7598    0.7523 H   0  0  0  0  0  0  0  0  0  0  0  0
   -0.7120   -1.3950   -1.7215 H   0  0  0  0  0  0  0  0  0  0  0  0
   -0.4097   -2.4758   -0.3683 H   0  0  0  0  0  0  0  0  0  0  0  0
   -0.1870   -0.5601    1.1768 H   0  0  0  0  0  0  0  0  0  0  0  0
   -0.5327    1.2232   -1.2537 H   0  0  0  0  0  0  0  0  0  0  0  0
   -0.2918    3.0832    0.1999 H   0  0  0  0  0  0  0  0  0  0  0  0
   -0.3576    2.1071    1.6640 H   0  0  0  0  0  0  0  0  0  0  0  0
    1.9974    2.8770    1.0280 H   0  0  0  0  0  0  0  0  0  0  0  0
    4.0528    1.8123    0.8785 H   0  0  0  0  0  0  0  0  0  0  0  0
    4.1005    0.9492   -0.6306 H   0  0  0  0  0  0  0  0  0  0  0  0
    3.9510   -0.2474    2.1842 H   0  0  0  0  0  0  0  0  0  0  0  0
    5.8917   -0.4296    0.1129 H   0  0  0  0  0  0  0  0  0  0  0  0
    4.0436   -1.7724   -0.4717 H   0  0  0  0  0  0  0  0  0  0  0  0
    4.0177   -2.4621    1.1298 H   0  0  0  0  0  0  0  0  0  0  0  0
    1.7814   -2.5381    0.0870 H   0  0  0  0  0  0  0  0  0  0  0  0
    1.7867   -1.6122    1.5793 H   0  0  0  0  0  0  0  0  0  0  0  0
    1.4644   -1.4712   -2.1149 H   0  0  0  0  0  0  0  0  0  0  0  0
    1.2531    0.2791   -2.2904 H   0  0  0  0  0  0  0  0  0  0  0  0
    2.8395   -0.4014   -1.9600 H   0  0  0  0  0  0  0  0  0  0  0  0
   -2.6092    1.9681   -0.4597 H   0  0  0  0  0  0  0  0  0  0  0  0
   -2.2494    0.2743    2.0556 H   0  0  0  0  0  0  0  0  0  0  0  0
   -2.5760    2.0103    1.9512 H   0  0  0  0  0  0  0  0  0  0  0  0
   -4.8067    1.6755    1.1687 H   0  0  0  0  0  0  0  0  0  0  0  0
   -4.6118    0.2388    2.2351 H   0  0  0  0  0  0  0  0  0  0  0  0
  1  2  1  0
  2  3  1  0
  3  4  1  0
  4  5  1  0
  5  6  1  0
  6  7  1  0
  7  8  1  0
  8  9  2  0
  9 10  1  0
 10 11  1  0
 11 12  1  0
 11 13  1  0
 13 14  1  0
 14 15  1  0
 15 16  1  0
  6 17  1  0
 17 18  1  0
 18 19  1  0
 19 20  1  0
 20 21  2  0
 15  5  1  0
 15  9  1  0
 17  2  1  0
 20  2  1  0
  1 22  1  0
  1 23  1  0
  1 24  1  0
  3 25  1  0
  3 26  1  0
  4 27  1  0
  4 28  1  0
  5 29  1  0
  6 30  1  0
  7 31  1  0
  7 32  1  0
  8 33  1  0
 10 34  1  0
 10 35  1  0
 11 36  1  0
 12 37  1  0
 13 38  1  0
 13 39  1  0
 14 40  1  0
 14 41  1  0
 16 42  1  0
 16 43  1  0
 16 44  1  0
 17 45  1  0
 18 46  1  0
 18 47  1  0
 19 48  1  0
 19 49  1  0
M  END
>  <Energy>  (5) 
71.25714916099318

>  <Real charge>  (5) 
0

>  <Mult>  (5) 
1

$$$$
