mol_920 41
     RDKit          3D

 11 10  0  0  0  0  0  0  0  0999 V2000
    1.8079    0.3240    0.1860 C   0  0  0  0  0  0  0  0  0  0  0  0
    0.4165    0.6412    0.1323 O   0  0  0  0  0  0  0  0  0  0  0  0
   -0.3859   -0.4341   -0.0973 C   0  0  0  0  0  0  0  0  0  0  0  0
   -0.0049   -1.5858   -0.2507 O   0  0  0  0  0  0  0  0  0  0  0  0
   -1.8203   -0.0039   -0.1364 C   0  0  0  0  0  0  0  0  0  0  0  0
    2.1436   -0.0919   -0.7691 H   0  0  0  0  0  0  0  0  0  0  0  0
    2.3594    1.2495    0.3733 H   0  0  0  0  0  0  0  0  0  0  0  0
    2.0112   -0.3721    1.0058 H   0  0  0  0  0  0  0  0  0  0  0  0
   -2.4550   -0.8753   -0.3213 H   0  0  0  0  0  0  0  0  0  0  0  0
   -2.1023    0.4345    0.8241 H   0  0  0  0  0  0  0  0  0  0  0  0
   -1.9702    0.7140   -0.9466 H   0  0  0  0  0  0  0  0  0  0  0  0
  1  2  1  0
  2  3  1  0
  3  4  2  0
  3  5  1  0
  1  6  1  0
  1  7  1  0
  1  8  1  0
  5  9  1  0
  5 10  1  0
  5 11  1  0
M  END
>  <Energy>  (1) 
-8.849167624078147

>  <Real charge>  (1) 
0

>  <Mult>  (1) 
1

$$$$
