mol_880 49
     RDKit          3D

 22 23  0  0  0  0  0  0  0  0999 V2000
   -3.6933   -2.5859   -0.8704 Cl  0  0  0  0  0  0  0  0  0  0  0  0
   -2.8609   -1.1997   -0.2844 C   0  0  0  0  0  0  0  0  0  0  0  0
   -3.5799   -0.1479    0.2767 C   0  0  0  0  0  0  0  0  0  0  0  0
   -2.9032    0.9760    0.7517 C   0  0  0  0  0  0  0  0  0  0  0  0
   -1.5093    1.0438    0.6638 C   0  0  0  0  0  0  0  0  0  0  0  0
   -0.7309    2.4647    1.2709 Cl  0  0  0  0  0  0  0  0  0  0  0  0
   -0.7684   -0.0141    0.0979 C   0  0  0  0  0  0  0  0  0  0  0  0
   -1.4694   -1.1395   -0.3757 C   0  0  0  0  0  0  0  0  0  0  0  0
    0.7084    0.0244   -0.0110 C   0  0  0  0  0  0  0  0  0  0  0  0
    1.3377    0.5699   -1.1550 C   0  0  0  0  0  0  0  0  0  0  0  0
    0.3470    1.1737   -2.4595 Cl  0  0  0  0  0  0  0  0  0  0  0  0
    2.7416    0.6276   -1.2517 C   0  0  0  0  0  0  0  0  0  0  0  0
    3.4897    1.3037   -2.6727 Cl  0  0  0  0  0  0  0  0  0  0  0  0
    3.5371    0.1369   -0.2014 C   0  0  0  0  0  0  0  0  0  0  0  0
    5.2749    0.2056   -0.3186 Cl  0  0  0  0  0  0  0  0  0  0  0  0
    2.9306   -0.4130    0.9416 C   0  0  0  0  0  0  0  0  0  0  0  0
    3.9132   -1.0284    2.2423 Cl  0  0  0  0  0  0  0  0  0  0  0  0
    1.5262   -0.4684    1.0332 C   0  0  0  0  0  0  0  0  0  0  0  0
    0.7700   -1.1552    2.4489 Cl  0  0  0  0  0  0  0  0  0  0  0  0
   -4.6638   -0.1958    0.3474 H   0  0  0  0  0  0  0  0  0  0  0  0
   -3.4681    1.7959    1.1894 H   0  0  0  0  0  0  0  0  0  0  0  0
   -0.9290   -1.9741   -0.8183 H   0  0  0  0  0  0  0  0  0  0  0  0
  1  2  1  0
  2  3  2  0
  3  4  1  0
  4  5  2  0
  5  6  1  0
  5  7  1  0
  7  8  2  0
  7  9  1  0
  9 10  2  0
 10 11  1  0
 10 12  1  0
 12 13  1  0
 12 14  2  0
 14 15  1  0
 14 16  1  0
 16 17  1  0
 16 18  2  0
 18 19  1  0
  8  2  1  0
 18  9  1  0
  3 20  1  0
  4 21  1  0
  8 22  1  0
M  END
>  <Energy>  (1) 
55.7522193399748

>  <Real charge>  (1) 
0

>  <Mult>  (1) 
1

$$$$
