mol_761 45
     RDKit          3D

 18 19  0  0  0  0  0  0  0  0999 V2000
   -1.9802   -0.7229    0.3029 C   0  0  0  0  0  0  0  0  0  0  0  0
   -0.9422   -1.4096   -0.1942 C   0  0  0  0  0  0  0  0  0  0  0  0
    0.3033   -0.7394   -0.7131 C   0  0  0  0  0  0  0  0  0  0  0  0
    1.5013   -1.1521    0.1185 C   0  0  0  0  0  0  0  0  0  0  0  0
    1.8663   -2.2977    0.3363 O   0  0  0  0  0  0  0  0  0  0  0  0
    2.1265   -0.0449    0.5878 N   0  0  0  0  0  0  0  0  0  0  0  0
    1.5171    1.1129    0.2343 C   0  0  0  0  0  0  0  0  0  0  0  0
    1.8979    2.2252    0.5675 O   0  0  0  0  0  0  0  0  0  0  0  0
    0.3140    0.8039   -0.6342 C   0  0  0  0  0  0  0  0  0  0  0  0
   -0.9223    1.4351   -0.0489 C   0  0  0  0  0  0  0  0  0  0  0  0
   -1.9702    0.7158    0.3764 C   0  0  0  0  0  0  0  0  0  0  0  0
   -2.8623   -1.2411    0.6706 H   0  0  0  0  0  0  0  0  0  0  0  0
   -0.9804   -2.4965   -0.2293 H   0  0  0  0  0  0  0  0  0  0  0  0
    0.4834   -1.0553   -1.7477 H   0  0  0  0  0  0  0  0  0  0  0  0
    2.9390   -0.0809    1.1818 H   0  0  0  0  0  0  0  0  0  0  0  0
    0.4993    1.2211   -1.6314 H   0  0  0  0  0  0  0  0  0  0  0  0
   -0.9453    2.5202    0.0271 H   0  0  0  0  0  0  0  0  0  0  0  0
   -2.8452    1.2061    0.7956 H   0  0  0  0  0  0  0  0  0  0  0  0
  1  2  2  0
  2  3  1  0
  3  4  1  0
  4  5  2  0
  4  6  1  0
  6  7  1  0
  7  8  2  0
  7  9  1  0
  9 10  1  0
 10 11  2  0
 11  1  1  0
  9  3  1  0
  1 12  1  0
  2 13  1  0
  3 14  1  0
  6 15  1  0
  9 16  1  0
 10 17  1  0
 11 18  1  0
M  END
>  <Energy>  (1) 
-14.956397196137736

>  <Real charge>  (1) 
0

>  <Mult>  (1) 
1

$$$$
