mol_335 44
     RDKit          3D

 14 14  0  0  0  0  0  0  0  0999 V2000
    2.3181   -0.0062    0.4418 N   0  0  0  0  0  0  0  0  0  0  0  0
    0.9435   -0.0089    0.1773 C   0  0  0  0  0  0  0  0  0  0  0  0
    0.2842   -1.2107   -0.0998 C   0  0  0  0  0  0  0  0  0  0  0  0
   -1.1049   -1.2483   -0.2491 C   0  0  0  0  0  0  0  0  0  0  0  0
   -1.8534   -0.0855   -0.0804 C   0  0  0  0  0  0  0  0  0  0  0  0
   -1.2078    1.1019    0.2550 C   0  0  0  0  0  0  0  0  0  0  0  0
   -2.1315    2.5339    0.5015 Cl  0  0  0  0  0  0  0  0  0  0  0  0
    0.1797    1.1387    0.4039 C   0  0  0  0  0  0  0  0  0  0  0  0
    2.8313   -0.7463   -0.0272 H   0  0  0  0  0  0  0  0  0  0  0  0
    2.7608    0.9007    0.3283 H   0  0  0  0  0  0  0  0  0  0  0  0
    0.8505   -2.1331   -0.2026 H   0  0  0  0  0  0  0  0  0  0  0  0
   -1.6008   -2.1869   -0.4827 H   0  0  0  0  0  0  0  0  0  0  0  0
   -2.9336   -0.1150   -0.1918 H   0  0  0  0  0  0  0  0  0  0  0  0
    0.6639    2.0658    0.6966 H   0  0  0  0  0  0  0  0  0  0  0  0
  1  2  1  0
  2  3  2  0
  3  4  1  0
  4  5  2  0
  5  6  1  0
  6  7  1  0
  6  8  2  0
  8  2  1  0
  1  9  1  0
  1 10  1  0
  3 11  1  0
  4 12  1  0
  5 13  1  0
  8 14  1  0
M  END
>  <Energy>  (1) 
5.027590605907393

>  <Real charge>  (1) 
0

>  <Mult>  (1) 
1

$$$$
