mol_578 11
     RDKit          3D

  5  4  0  0  0  0  0  0  0  0999 V2000
    1.8123   -0.1366   -0.3929 Br  0  0  0  0  0  0  0  0  0  0  0  0
   -0.0512    0.0040    0.1276 C   0  0  0  0  0  0  0  0  0  0  0  0
   -0.7297    1.5165   -0.4792 Cl  0  0  0  0  0  0  0  0  0  0  0  0
   -0.9481   -1.3916   -0.4756 Cl  0  0  0  0  0  0  0  0  0  0  0  0
   -0.0833    0.0078    1.2200 H   0  0  0  0  0  0  0  0  0  0  0  0
  1  2  1  0
  2  3  1  0
  2  4  1  0
  2  5  1  0
M  END
>  <Energy>  (1) 
0.07689894923344556

>  <Real charge>  (1) 
0

>  <Mult>  (1) 
1

$$$$
