mol_321 287
     RDKit          3D

 35 37  0  0  0  0  0  0  0  0999 V2000
    5.2471   -0.9284    1.0071 C   0  0  0  0  0  0  0  0  0  0  0  0
    4.2410   -1.6719    0.3305 O   0  0  0  0  0  0  0  0  0  0  0  0
    2.9672   -1.1793    0.3851 C   0  0  0  0  0  0  0  0  0  0  0  0
    2.0212   -1.9249   -0.3185 C   0  0  0  0  0  0  0  0  0  0  0  0
    0.6766   -1.5378   -0.3515 C   0  0  0  0  0  0  0  0  0  0  0  0
    0.2430   -0.3870    0.3236 C   0  0  0  0  0  0  0  0  0  0  0  0
    1.2118    0.3525    1.0343 C   0  0  0  0  0  0  0  0  0  0  0  0
    2.5565   -0.0363    1.0642 C   0  0  0  0  0  0  0  0  0  0  0  0
   -1.2162    0.0991    0.3311 C   0  0  0  0  0  0  0  0  0  0  0  0
   -1.6078    0.1649    1.7107 O   0  0  0  0  0  0  0  0  0  0  0  0
   -2.1626   -0.8564   -0.3897 C   0  0  0  0  0  0  0  0  0  0  0  0
   -2.7039   -2.1177    0.2540 C   0  0  0  0  0  0  0  0  0  0  0  0
   -3.6262   -0.9615   -0.0108 C   0  0  0  0  0  0  0  0  0  0  0  0
   -1.3870    1.4704   -0.2911 C   0  0  0  0  0  0  0  0  0  0  0  0
   -0.7804    1.8390   -1.4804 C   0  0  0  0  0  0  0  0  0  0  0  0
   -0.9359    3.0403   -2.0752 N   0  0  0  0  0  0  0  0  0  0  0  0
   -1.7435    3.9010   -1.4402 C   0  0  0  0  0  0  0  0  0  0  0  0
   -2.3961    3.6674   -0.2936 N   0  0  0  0  0  0  0  0  0  0  0  0
   -2.2020    2.4472    0.2520 C   0  0  0  0  0  0  0  0  0  0  0  0
    5.3421    0.0793    0.5893 H   0  0  0  0  0  0  0  0  0  0  0  0
    5.0542   -0.8939    2.0844 H   0  0  0  0  0  0  0  0  0  0  0  0
    6.2011   -1.4427    0.8561 H   0  0  0  0  0  0  0  0  0  0  0  0
    2.3348   -2.8208   -0.8504 H   0  0  0  0  0  0  0  0  0  0  0  0
   -0.0114   -2.1612   -0.9166 H   0  0  0  0  0  0  0  0  0  0  0  0
    0.9185    1.2526    1.5756 H   0  0  0  0  0  0  0  0  0  0  0  0
    3.2518    0.5778    1.6268 H   0  0  0  0  0  0  0  0  0  0  0  0
   -1.1745   -0.5823    2.1569 H   0  0  0  0  0  0  0  0  0  0  0  0
   -1.9527   -0.9037   -1.4559 H   0  0  0  0  0  0  0  0  0  0  0  0
   -2.4596   -2.3387    1.2861 H   0  0  0  0  0  0  0  0  0  0  0  0
   -2.8088   -2.9998   -0.3684 H   0  0  0  0  0  0  0  0  0  0  0  0
   -3.9912   -0.3986    0.8415 H   0  0  0  0  0  0  0  0  0  0  0  0
   -4.3500   -1.0578   -0.8126 H   0  0  0  0  0  0  0  0  0  0  0  0
   -0.1251    1.1586   -2.0190 H   0  0  0  0  0  0  0  0  0  0  0  0
   -1.8830    4.8745   -1.8967 H   0  0  0  0  0  0  0  0  0  0  0  0
   -2.7490    2.2760    1.1763 H   0  0  0  0  0  0  0  0  0  0  0  0
  1  2  1  0
  2  3  1  0
  3  4  2  0
  4  5  1  0
  5  6  2  0
  6  7  1  0
  7  8  2  0
  6  9  1  0
  9 10  1  0
  9 11  1  0
 11 12  1  0
 12 13  1  0
  9 14  1  0
 14 15  2  0
 15 16  1  0
 16 17  2  0
 17 18  1  0
 18 19  2  0
  8  3  1  0
 13 11  1  0
 19 14  1  0
  1 20  1  0
  1 21  1  0
  1 22  1  0
  4 23  1  0
  5 24  1  0
  7 25  1  0
  8 26  1  0
 10 27  1  0
 11 28  1  0
 12 29  1  0
 12 30  1  0
 13 31  1  0
 13 32  1  0
 15 33  1  0
 17 34  1  0
 19 35  1  0
M  END
>  <Energy>  (1) 
42.69440946014391

>  <Real charge>  (1) 
0

>  <Mult>  (1) 
1

$$$$
mol_321 266
     RDKit          3D

 35 37  0  0  0  0  0  0  0  0999 V2000
    5.3807   -0.3041   -0.2718 C   0  0  0  0  0  0  0  0  0  0  0  0
    4.5019    0.1288    0.7588 O   0  0  0  0  0  0  0  0  0  0  0  0
    3.1621   -0.0204    0.5339 C   0  0  0  0  0  0  0  0  0  0  0  0
    2.3418    0.4411    1.5616 C   0  0  0  0  0  0  0  0  0  0  0  0
    0.9514    0.3478    1.4597 C   0  0  0  0  0  0  0  0  0  0  0  0
    0.3385   -0.2119    0.3209 C   0  0  0  0  0  0  0  0  0  0  0  0
    1.1800   -0.6738   -0.7044 C   0  0  0  0  0  0  0  0  0  0  0  0
    2.5756   -0.5790   -0.5993 C   0  0  0  0  0  0  0  0  0  0  0  0
   -1.1970   -0.2873    0.2651 C   0  0  0  0  0  0  0  0  0  0  0  0
   -1.6068   -1.0221    1.4285 O   0  0  0  0  0  0  0  0  0  0  0  0
   -1.7074   -1.0263   -0.9690 C   0  0  0  0  0  0  0  0  0  0  0  0
   -1.7383   -2.5389   -1.0643 C   0  0  0  0  0  0  0  0  0  0  0  0
   -3.0265   -1.7724   -0.9602 C   0  0  0  0  0  0  0  0  0  0  0  0
   -1.8601    1.0751    0.2902 C   0  0  0  0  0  0  0  0  0  0  0  0
   -2.9967    1.3450    1.0309 C   0  0  0  0  0  0  0  0  0  0  0  0
   -3.6287    2.5386    1.0492 N   0  0  0  0  0  0  0  0  0  0  0  0
   -3.0890    3.4929    0.2792 C   0  0  0  0  0  0  0  0  0  0  0  0
   -2.0017    3.3595   -0.4930 N   0  0  0  0  0  0  0  0  0  0  0  0
   -1.4135    2.1452   -0.4672 C   0  0  0  0  0  0  0  0  0  0  0  0
    5.2883   -1.3819   -0.4418 H   0  0  0  0  0  0  0  0  0  0  0  0
    5.2129    0.2583   -1.1963 H   0  0  0  0  0  0  0  0  0  0  0  0
    6.4053   -0.1058    0.0572 H   0  0  0  0  0  0  0  0  0  0  0  0
    2.7877    0.8804    2.4511 H   0  0  0  0  0  0  0  0  0  0  0  0
    0.3420    0.7211    2.2827 H   0  0  0  0  0  0  0  0  0  0  0  0
    0.7758   -1.1199   -1.6099 H   0  0  0  0  0  0  0  0  0  0  0  0
    3.1736   -0.9535   -1.4239 H   0  0  0  0  0  0  0  0  0  0  0  0
   -0.9195   -1.6898    1.5926 H   0  0  0  0  0  0  0  0  0  0  0  0
   -1.4865   -0.4826   -1.8846 H   0  0  0  0  0  0  0  0  0  0  0  0
   -1.4971   -2.9924   -2.0194 H   0  0  0  0  0  0  0  0  0  0  0  0
   -1.4385   -3.1339   -0.2098 H   0  0  0  0  0  0  0  0  0  0  0  0
   -3.6527   -1.7019   -1.8428 H   0  0  0  0  0  0  0  0  0  0  0  0
   -3.5852   -1.8433   -0.0332 H   0  0  0  0  0  0  0  0  0  0  0  0
   -3.4573    0.5830    1.6553 H   0  0  0  0  0  0  0  0  0  0  0  0
   -3.5777    4.4607    0.2793 H   0  0  0  0  0  0  0  0  0  0  0  0
   -0.5369    2.0637   -1.1053 H   0  0  0  0  0  0  0  0  0  0  0  0
  1  2  1  0
  2  3  1  0
  3  4  2  0
  4  5  1  0
  5  6  2  0
  6  7  1  0
  7  8  2  0
  6  9  1  0
  9 10  1  0
  9 11  1  0
 11 12  1  0
 12 13  1  0
  9 14  1  0
 14 15  2  0
 15 16  1  0
 16 17  2  0
 17 18  1  0
 18 19  2  0
  8  3  1  0
 13 11  1  0
 19 14  1  0
  1 20  1  0
  1 21  1  0
  1 22  1  0
  4 23  1  0
  5 24  1  0
  7 25  1  0
  8 26  1  0
 10 27  1  0
 11 28  1  0
 12 29  1  0
 12 30  1  0
 13 31  1  0
 13 32  1  0
 15 33  1  0
 17 34  1  0
 19 35  1  0
M  END
>  <Energy>  (2) 
43.00197905478782

>  <Real charge>  (2) 
0

>  <Mult>  (2) 
1

$$$$
