mol_166 195
     RDKit          3D

 29 28  0  0  0  0  0  0  0  0999 V2000
    1.9521    2.2347   -1.1513 C   0  0  0  0  0  0  0  0  0  0  0  0
    1.6271    0.8013   -0.8165 C   0  0  0  0  0  0  0  0  0  0  0  0
    1.5253   -0.1023   -2.0143 C   0  0  0  0  0  0  0  0  0  0  0  0
    1.4471    0.4201    0.4633 C   0  0  0  0  0  0  0  0  0  0  0  0
    1.1577   -0.9619    0.9903 C   0  0  0  0  0  0  0  0  0  0  0  0
   -0.2593   -1.1059    1.5656 C   0  0  0  0  0  0  0  0  0  0  0  0
   -1.3528   -1.1363    0.5154 C   0  0  0  0  0  0  0  0  0  0  0  0
   -1.5284   -2.4603   -0.1852 C   0  0  0  0  0  0  0  0  0  0  0  0
   -2.1510   -0.0949    0.2047 C   0  0  0  0  0  0  0  0  0  0  0  0
   -2.1292    1.2881    0.7700 C   0  0  0  0  0  0  0  0  0  0  0  0
   -1.7924    2.1831   -0.2790 O   0  0  0  0  0  0  0  0  0  0  0  0
    1.1820    2.6558   -1.8059 H   0  0  0  0  0  0  0  0  0  0  0  0
    2.9169    2.2936   -1.6658 H   0  0  0  0  0  0  0  0  0  0  0  0
    2.0114    2.8671   -0.2593 H   0  0  0  0  0  0  0  0  0  0  0  0
    0.7883    0.2944   -2.7209 H   0  0  0  0  0  0  0  0  0  0  0  0
    1.2152   -1.1197   -1.7687 H   0  0  0  0  0  0  0  0  0  0  0  0
    2.4929   -0.1624   -2.5231 H   0  0  0  0  0  0  0  0  0  0  0  0
    1.5375    1.1764    1.2439 H   0  0  0  0  0  0  0  0  0  0  0  0
    1.3510   -1.7381    0.2446 H   0  0  0  0  0  0  0  0  0  0  0  0
    1.8754   -1.1537    1.7986 H   0  0  0  0  0  0  0  0  0  0  0  0
   -0.3091   -2.0423    2.1372 H   0  0  0  0  0  0  0  0  0  0  0  0
   -0.4397   -0.3196    2.3068 H   0  0  0  0  0  0  0  0  0  0  0  0
   -2.3444   -2.4386   -0.9154 H   0  0  0  0  0  0  0  0  0  0  0  0
   -0.6155   -2.7373   -0.7210 H   0  0  0  0  0  0  0  0  0  0  0  0
   -1.7579   -3.2463    0.5417 H   0  0  0  0  0  0  0  0  0  0  0  0
   -2.9127   -0.2329   -0.5624 H   0  0  0  0  0  0  0  0  0  0  0  0
   -1.4136    1.4284    1.5820 H   0  0  0  0  0  0  0  0  0  0  0  0
   -3.1216    1.5542    1.1459 H   0  0  0  0  0  0  0  0  0  0  0  0
   -0.9524    1.8551   -0.6472 H   0  0  0  0  0  0  0  0  0  0  0  0
  1  2  1  0
  2  3  1  0
  2  4  2  3
  4  5  1  0
  5  6  1  0
  6  7  1  0
  7  8  1  0
  7  9  2  0
  9 10  1  0
 10 11  1  0
  1 12  1  0
  1 13  1  0
  1 14  1  0
  3 15  1  0
  3 16  1  0
  3 17  1  0
  4 18  1  0
  5 19  1  0
  5 20  1  0
  6 21  1  0
  6 22  1  0
  8 23  1  0
  8 24  1  0
  8 25  1  0
  9 26  1  0
 10 27  1  0
 10 28  1  0
 11 29  1  0
M  END
>  <Energy>  (1) 
12.699803090747151

>  <Real charge>  (1) 
0

>  <Mult>  (1) 
1

$$$$
mol_166 23
     RDKit          3D

 29 28  0  0  0  0  0  0  0  0999 V2000
    1.8411    2.4058   -0.8698 C   0  0  0  0  0  0  0  0  0  0  0  0
    1.8014    0.9694   -0.4180 C   0  0  0  0  0  0  0  0  0  0  0  0
    2.7772    0.6361    0.6766 C   0  0  0  0  0  0  0  0  0  0  0  0
    0.9373    0.0960   -0.9706 C   0  0  0  0  0  0  0  0  0  0  0  0
    0.7906   -1.3700   -0.6561 C   0  0  0  0  0  0  0  0  0  0  0  0
   -0.2618   -1.6661    0.4226 C   0  0  0  0  0  0  0  0  0  0  0  0
   -1.6665   -1.2169    0.0685 C   0  0  0  0  0  0  0  0  0  0  0  0
   -2.3822   -2.0855   -0.9351 C   0  0  0  0  0  0  0  0  0  0  0  0
   -2.2811   -0.1359    0.5912 C   0  0  0  0  0  0  0  0  0  0  0  0
   -1.7484    0.8431    1.5871 C   0  0  0  0  0  0  0  0  0  0  0  0
   -1.6074    2.0957    0.9355 O   0  0  0  0  0  0  0  0  0  0  0  0
    2.8370    2.6560   -1.2497 H   0  0  0  0  0  0  0  0  0  0  0  0
    1.6087    3.0729   -0.0333 H   0  0  0  0  0  0  0  0  0  0  0  0
    1.1194    2.6100   -1.6678 H   0  0  0  0  0  0  0  0  0  0  0  0
    2.6340    1.3127    1.5261 H   0  0  0  0  0  0  0  0  0  0  0  0
    3.8038    0.7500    0.3137 H   0  0  0  0  0  0  0  0  0  0  0  0
    2.6674   -0.3820    1.0578 H   0  0  0  0  0  0  0  0  0  0  0  0
    0.2608    0.4509   -1.7486 H   0  0  0  0  0  0  0  0  0  0  0  0
    0.5358   -1.8952   -1.5852 H   0  0  0  0  0  0  0  0  0  0  0  0
    1.7515   -1.7951   -0.3444 H   0  0  0  0  0  0  0  0  0  0  0  0
    0.0677   -1.2322    1.3722 H   0  0  0  0  0  0  0  0  0  0  0  0
   -0.2814   -2.7489    0.6036 H   0  0  0  0  0  0  0  0  0  0  0  0
   -2.4380   -3.1171   -0.5725 H   0  0  0  0  0  0  0  0  0  0  0  0
   -3.4069   -1.7464   -1.1210 H   0  0  0  0  0  0  0  0  0  0  0  0
   -1.8549   -2.0804   -1.8939 H   0  0  0  0  0  0  0  0  0  0  0  0
   -3.2945    0.0957    0.2640 H   0  0  0  0  0  0  0  0  0  0  0  0
   -0.7845    0.5688    2.0190 H   0  0  0  0  0  0  0  0  0  0  0  0
   -2.4606    0.9602    2.4095 H   0  0  0  0  0  0  0  0  0  0  0  0
   -0.9655    1.9482    0.2185 H   0  0  0  0  0  0  0  0  0  0  0  0
  1  2  1  0
  2  3  1  0
  2  4  2  3
  4  5  1  0
  5  6  1  0
  6  7  1  0
  7  8  1  0
  7  9  2  0
  9 10  1  0
 10 11  1  0
  1 12  1  0
  1 13  1  0
  1 14  1  0
  3 15  1  0
  3 16  1  0
  3 17  1  0
  4 18  1  0
  5 19  1  0
  5 20  1  0
  6 21  1  0
  6 22  1  0
  8 23  1  0
  8 24  1  0
  8 25  1  0
  9 26  1  0
 10 27  1  0
 10 28  1  0
 11 29  1  0
M  END
>  <Energy>  (2) 
13.047884660787052

>  <Real charge>  (2) 
0

>  <Mult>  (2) 
1

$$$$
mol_166 324
     RDKit          3D

 29 28  0  0  0  0  0  0  0  0999 V2000
    3.1006   -1.1426   -0.1205 C   0  0  0  0  0  0  0  0  0  0  0  0
    2.2503    0.0886    0.0539 C   0  0  0  0  0  0  0  0  0  0  0  0
    2.6990    0.9998    1.1625 C   0  0  0  0  0  0  0  0  0  0  0  0
    1.1787    0.2998   -0.7348 C   0  0  0  0  0  0  0  0  0  0  0  0
    0.2404    1.4775   -0.7156 C   0  0  0  0  0  0  0  0  0  0  0  0
   -1.0525    1.2086    0.0675 C   0  0  0  0  0  0  0  0  0  0  0  0
   -1.9400    0.1364   -0.5359 C   0  0  0  0  0  0  0  0  0  0  0  0
   -2.7537    0.5747   -1.7273 C   0  0  0  0  0  0  0  0  0  0  0  0
   -2.0498   -1.1222   -0.0637 C   0  0  0  0  0  0  0  0  0  0  0  0
   -1.3183   -1.7460    1.0814 C   0  0  0  0  0  0  0  0  0  0  0  0
   -2.2705   -2.0913    2.0756 O   0  0  0  0  0  0  0  0  0  0  0  0
    2.7477   -1.7796   -0.9383 H   0  0  0  0  0  0  0  0  0  0  0  0
    3.0916   -1.7426    0.7954 H   0  0  0  0  0  0  0  0  0  0  0  0
    4.1349   -0.8598   -0.3422 H   0  0  0  0  0  0  0  0  0  0  0  0
    2.7936    0.4361    2.0970 H   0  0  0  0  0  0  0  0  0  0  0  0
    3.6747    1.4339    0.9215 H   0  0  0  0  0  0  0  0  0  0  0  0
    2.0041    1.8201    1.3566 H   0  0  0  0  0  0  0  0  0  0  0  0
    0.9381   -0.4442   -1.4948 H   0  0  0  0  0  0  0  0  0  0  0  0
    0.0073    1.7476   -1.7529 H   0  0  0  0  0  0  0  0  0  0  0  0
    0.7329    2.3608   -0.2948 H   0  0  0  0  0  0  0  0  0  0  0  0
   -0.8064    0.9786    1.1102 H   0  0  0  0  0  0  0  0  0  0  0  0
   -1.6293    2.1418    0.1180 H   0  0  0  0  0  0  0  0  0  0  0  0
   -2.0986    0.8746   -2.5509 H   0  0  0  0  0  0  0  0  0  0  0  0
   -3.3904    1.4245   -1.4604 H   0  0  0  0  0  0  0  0  0  0  0  0
   -3.4067   -0.2220   -2.0993 H   0  0  0  0  0  0  0  0  0  0  0  0
   -2.7303   -1.8102   -0.5649 H   0  0  0  0  0  0  0  0  0  0  0  0
   -0.5614   -1.1026    1.5336 H   0  0  0  0  0  0  0  0  0  0  0  0
   -0.8205   -2.6620    0.7490 H   0  0  0  0  0  0  0  0  0  0  0  0
   -2.7657   -1.2782    2.2741 H   0  0  0  0  0  0  0  0  0  0  0  0
  1  2  1  0
  2  3  1  0
  2  4  2  3
  4  5  1  0
  5  6  1  0
  6  7  1  0
  7  8  1  0
  7  9  2  0
  9 10  1  0
 10 11  1  0
  1 12  1  0
  1 13  1  0
  1 14  1  0
  3 15  1  0
  3 16  1  0
  3 17  1  0
  4 18  1  0
  5 19  1  0
  5 20  1  0
  6 21  1  0
  6 22  1  0
  8 23  1  0
  8 24  1  0
  8 25  1  0
  9 26  1  0
 10 27  1  0
 10 28  1  0
 11 29  1  0
M  END
>  <Energy>  (3) 
13.689940588455173

>  <Real charge>  (3) 
0

>  <Mult>  (3) 
1

$$$$
