mol_793 123
     RDKit          3D

 23 25  0  0  0  0  0  0  0  0999 V2000
   -2.5428   -1.4842    0.8913 O   0  0  0  0  0  0  0  0  0  0  0  0
   -1.5207   -0.5045    0.9421 C   0  0  0  0  0  0  0  0  0  0  0  0
   -2.0419    0.7429    0.3075 C   0  0  0  0  0  0  0  0  0  0  0  0
   -1.4099    1.0684   -0.8259 C   0  0  0  0  0  0  0  0  0  0  0  0
   -0.3290    0.0892   -1.1645 C   0  0  0  0  0  0  0  0  0  0  0  0
   -0.3710   -0.9367    0.0254 C   0  0  0  0  0  0  0  0  0  0  0  0
    1.0819   -0.8348    0.5878 C   0  0  0  0  0  0  0  0  0  0  0  0
    1.5189   -2.1749    1.6361 Cl  0  0  0  0  0  0  0  0  0  0  0  0
    1.3042    0.5551    1.1565 C   0  0  0  0  0  0  0  0  0  0  0  0
    1.3544    1.4063    0.1253 C   0  0  0  0  0  0  0  0  0  0  0  0
    1.5188    3.0907    0.1717 Cl  0  0  0  0  0  0  0  0  0  0  0  0
    1.1546    0.5927   -1.1396 C   0  0  0  0  0  0  0  0  0  0  0  0
    1.6677    1.3451   -2.6405 Cl  0  0  0  0  0  0  0  0  0  0  0  0
    1.9228   -0.7019   -0.7271 C   0  0  0  0  0  0  0  0  0  0  0  0
    3.6989   -0.4772   -0.4704 Cl  0  0  0  0  0  0  0  0  0  0  0  0
    1.7598   -2.0733   -1.8813 Cl  0  0  0  0  0  0  0  0  0  0  0  0
    1.4020    0.9179    2.8078 Cl  0  0  0  0  0  0  0  0  0  0  0  0
   -3.3012   -1.1466    1.3984 H   0  0  0  0  0  0  0  0  0  0  0  0
   -1.2240   -0.3603    1.9833 H   0  0  0  0  0  0  0  0  0  0  0  0
   -2.8592    1.3173    0.7250 H   0  0  0  0  0  0  0  0  0  0  0  0
   -1.6519    1.9298   -1.4371 H   0  0  0  0  0  0  0  0  0  0  0  0
   -0.5752   -0.4146   -2.1073 H   0  0  0  0  0  0  0  0  0  0  0  0
   -0.5575   -1.9467   -0.3645 H   0  0  0  0  0  0  0  0  0  0  0  0
  1  2  1  0
  2  3  1  0
  3  4  2  0
  4  5  1  0
  5  6  1  0
  6  7  1  0
  7  8  1  0
  7  9  1  0
  9 10  2  0
 10 11  1  0
 10 12  1  0
 12 13  1  0
 12 14  1  0
 14 15  1  0
 14 16  1  0
  9 17  1  0
  6  2  1  0
 12  5  1  0
 14  7  1  0
  1 18  1  0
  2 19  1  0
  3 20  1  0
  4 21  1  0
  5 22  1  0
  6 23  1  0
M  END
>  <Energy>  (1) 
73.23652740554799

>  <Real charge>  (1) 
0

>  <Mult>  (1) 
1

$$$$
mol_793 133
     RDKit          3D

 23 25  0  0  0  0  0  0  0  0999 V2000
    2.7657    1.3271    0.4936 O   0  0  0  0  0  0  0  0  0  0  0  0
    1.5752    1.0253   -0.2145 C   0  0  0  0  0  0  0  0  0  0  0  0
    1.8643   -0.0644   -1.1948 C   0  0  0  0  0  0  0  0  0  0  0  0
    1.2093   -1.2016   -0.9360 C   0  0  0  0  0  0  0  0  0  0  0  0
    0.3368   -1.0816    0.2750 C   0  0  0  0  0  0  0  0  0  0  0  0
    0.5493    0.4045    0.7410 C   0  0  0  0  0  0  0  0  0  0  0  0
   -0.9097    0.9643    0.7007 C   0  0  0  0  0  0  0  0  0  0  0  0
   -1.1067    2.4604    1.5987 Cl  0  0  0  0  0  0  0  0  0  0  0  0
   -1.4053    0.9752   -0.7341 C   0  0  0  0  0  0  0  0  0  0  0  0
   -1.5924   -0.2974   -1.1032 C   0  0  0  0  0  0  0  0  0  0  0  0
   -2.0769   -0.8837   -2.6156 Cl  0  0  0  0  0  0  0  0  0  0  0  0
   -1.2158   -1.1688    0.0795 C   0  0  0  0  0  0  0  0  0  0  0  0
   -1.8288   -2.8137    0.0658 Cl  0  0  0  0  0  0  0  0  0  0  0  0
   -1.7326   -0.2568    1.2362 C   0  0  0  0  0  0  0  0  0  0  0  0
   -3.5234   -0.0124    1.2633 Cl  0  0  0  0  0  0  0  0  0  0  0  0
   -1.2831   -0.8140    2.8884 Cl  0  0  0  0  0  0  0  0  0  0  0  0
   -1.6139    2.3692   -1.6723 Cl  0  0  0  0  0  0  0  0  0  0  0  0
    3.3012    0.5181    0.5660 H   0  0  0  0  0  0  0  0  0  0  0  0
    1.2255    1.9398   -0.6980 H   0  0  0  0  0  0  0  0  0  0  0  0
    2.5437    0.0712   -2.0277 H   0  0  0  0  0  0  0  0  0  0  0  0
    1.2915   -2.1047   -1.5299 H   0  0  0  0  0  0  0  0  0  0  0  0
    0.6915   -1.7742    1.0482 H   0  0  0  0  0  0  0  0  0  0  0  0
    0.9347    0.4184    1.7696 H   0  0  0  0  0  0  0  0  0  0  0  0
  1  2  1  0
  2  3  1  0
  3  4  2  0
  4  5  1  0
  5  6  1  0
  6  7  1  0
  7  8  1  0
  7  9  1  0
  9 10  2  0
 10 11  1  0
 10 12  1  0
 12 13  1  0
 12 14  1  0
 14 15  1  0
 14 16  1  0
  9 17  1  0
  6  2  1  0
 12  5  1  0
 14  7  1  0
  1 18  1  0
  2 19  1  0
  3 20  1  0
  4 21  1  0
  5 22  1  0
  6 23  1  0
M  END
>  <Energy>  (2) 
74.03842647886104

>  <Real charge>  (2) 
0

>  <Mult>  (2) 
1

$$$$
