mol_1032 8
     RDKit          3D

 12 12  0  0  0  0  0  0  0  0999 V2000
    2.3908   -2.1410   -0.0379 Br  0  0  0  0  0  0  0  0  0  0  0  0
    0.9837   -0.8655   -0.0153 C   0  0  0  0  0  0  0  0  0  0  0  0
   -0.3261   -1.3591   -0.0281 C   0  0  0  0  0  0  0  0  0  0  0  0
   -1.4102   -0.4800   -0.0128 C   0  0  0  0  0  0  0  0  0  0  0  0
   -1.1905    0.8953    0.0154 C   0  0  0  0  0  0  0  0  0  0  0  0
    0.1134    1.3931    0.0283 C   0  0  0  0  0  0  0  0  0  0  0  0
    1.2043    0.5161    0.0130 C   0  0  0  0  0  0  0  0  0  0  0  0
    2.9387    1.2900    0.0325 Br  0  0  0  0  0  0  0  0  0  0  0  0
   -0.5134   -2.4303   -0.0501 H   0  0  0  0  0  0  0  0  0  0  0  0
   -2.4256   -0.8692   -0.0228 H   0  0  0  0  0  0  0  0  0  0  0  0
   -2.0343    1.5813    0.0274 H   0  0  0  0  0  0  0  0  0  0  0  0
    0.2691    2.4693    0.0504 H   0  0  0  0  0  0  0  0  0  0  0  0
  1  2  1  0
  2  3  2  0
  3  4  1  0
  4  5  2  0
  5  6  1  0
  6  7  2  0
  7  8  1  0
  7  2  1  0
  3  9  1  0
  4 10  1  0
  5 11  1  0
  6 12  1  0
M  END
>  <Energy>  (1) 
23.47889267391189

>  <Real charge>  (1) 
0

>  <Mult>  (1) 
1

$$$$
