mol_619 330
     RDKit          3D

 20 19  0  0  0  0  0  0  0  0999 V2000
   -3.1605   -2.2764   -1.4186 O   0  0  0  0  0  1  0  0  0  0  0  0
   -2.9734   -1.2558   -0.7618 N   0  0  0  0  0  4  0  0  0  0  0  0
   -3.7722   -0.5412   -0.1565 O   0  0  0  0  0  0  0  0  0  0  0  0
   -1.6065   -0.8849   -0.7055 O   0  0  0  0  0  0  0  0  0  0  0  0
   -1.3913    0.3080    0.0491 C   0  0  0  0  0  0  0  0  0  0  0  0
    0.1135    0.6245    0.0798 C   0  0  0  0  0  0  0  0  0  0  0  0
    0.9134   -0.5623    0.6405 C   0  0  0  0  0  0  0  0  0  0  0  0
    2.2587   -0.1253    0.8493 O   0  0  0  0  0  0  0  0  0  0  0  0
    3.0845   -1.1467    1.3797 N   0  0  0  0  0  4  0  0  0  0  0  0
    4.2431   -0.7784    1.5539 O   0  0  0  0  0  1  0  0  0  0  0  0
    2.5540   -2.2353    1.6031 O   0  0  0  0  0  0  0  0  0  0  0  0
    0.6018    0.8539   -1.2509 O   0  0  0  0  0  0  0  0  0  0  0  0
    0.4185    2.1808   -1.7097 N   0  0  0  0  0  4  0  0  0  0  0  0
    0.8893    2.3656   -2.8282 O   0  0  0  0  0  1  0  0  0  0  0  0
   -0.1897    2.9509   -0.9669 O   0  0  0  0  0  0  0  0  0  0  0  0
   -1.7435    0.1703    1.0790 H   0  0  0  0  0  0  0  0  0  0  0  0
   -1.9382    1.1332   -0.4203 H   0  0  0  0  0  0  0  0  0  0  0  0
    0.3132    1.4885    0.7271 H   0  0  0  0  0  0  0  0  0  0  0  0
    0.4751   -0.8781    1.5950 H   0  0  0  0  0  0  0  0  0  0  0  0
    0.9103   -1.3913   -0.0783 H   0  0  0  0  0  0  0  0  0  0  0  0
  1  2  1  0
  2  3  2  0
  2  4  1  0
  4  5  1  0
  5  6  1  0
  6  7  1  0
  7  8  1  0
  8  9  1  0
  9 10  1  0
  9 11  2  0
  6 12  1  0
 12 13  1  0
 13 14  1  0
 13 15  2  0
  5 16  1  0
  5 17  1  0
  6 18  1  0
  7 19  1  0
  7 20  1  0
M  CHG  6   1  -1   2   1   9   1  10  -1  13   1  14  -1
M  END
>  <Energy>  (1) 
-49.16756819157212

>  <Real charge>  (1) 
0

>  <Mult>  (1) 
1

$$$$
mol_619 74
     RDKit          3D

 20 19  0  0  0  0  0  0  0  0999 V2000
    3.4865   -0.0339    1.5674 O   0  0  0  0  0  1  0  0  0  0  0  0
    3.2821   -0.7422    0.5817 N   0  0  0  0  0  4  0  0  0  0  0  0
    3.9963   -1.5877    0.0493 O   0  0  0  0  0  0  0  0  0  0  0  0
    2.0269   -0.6041   -0.0620 O   0  0  0  0  0  0  0  0  0  0  0  0
    1.2055    0.3881    0.5457 C   0  0  0  0  0  0  0  0  0  0  0  0
   -0.1279    0.4690   -0.2130 C   0  0  0  0  0  0  0  0  0  0  0  0
   -0.9190   -0.8404   -0.0511 C   0  0  0  0  0  0  0  0  0  0  0  0
   -2.0741   -0.7648   -0.8901 O   0  0  0  0  0  0  0  0  0  0  0  0
   -2.8902   -1.9186   -0.7942 N   0  0  0  0  0  4  0  0  0  0  0  0
   -2.5138   -2.8080   -0.0302 O   0  0  0  0  0  1  0  0  0  0  0  0
   -3.8839   -1.8591   -1.5137 O   0  0  0  0  0  0  0  0  0  0  0  0
   -0.9420    1.5120    0.3388 O   0  0  0  0  0  0  0  0  0  0  0  0
   -0.6817    2.7917   -0.2102 N   0  0  0  0  0  4  0  0  0  0  0  0
   -1.4298    3.6581    0.2329 O   0  0  0  0  0  1  0  0  0  0  0  0
    0.2474    2.8780   -1.0124 O   0  0  0  0  0  0  0  0  0  0  0  0
    1.7090    1.3617    0.5167 H   0  0  0  0  0  0  0  0  0  0  0  0
    1.0075    0.1391    1.5968 H   0  0  0  0  0  0  0  0  0  0  0  0
    0.0342    0.6044   -1.2910 H   0  0  0  0  0  0  0  0  0  0  0  0
   -0.3011   -1.6930   -0.3565 H   0  0  0  0  0  0  0  0  0  0  0  0
   -1.2319   -0.9502    0.9951 H   0  0  0  0  0  0  0  0  0  0  0  0
  1  2  1  0
  2  3  2  0
  2  4  1  0
  4  5  1  0
  5  6  1  0
  6  7  1  0
  7  8  1  0
  8  9  1  0
  9 10  1  0
  9 11  2  0
  6 12  1  0
 12 13  1  0
 13 14  1  0
 13 15  2  0
  5 16  1  0
  5 17  1  0
  6 18  1  0
  7 19  1  0
  7 20  1  0
M  CHG  6   1  -1   2   1   9   1  10  -1  13   1  14  -1
M  END
>  <Energy>  (2) 
-49.01502935473751

>  <Real charge>  (2) 
0

>  <Mult>  (2) 
1

$$$$
mol_619 358
     RDKit          3D

 20 19  0  0  0  0  0  0  0  0999 V2000
   -2.7449   -2.9980    0.5623 O   0  0  0  0  0  1  0  0  0  0  0  0
   -2.4736   -1.8263    0.8118 N   0  0  0  0  0  4  0  0  0  0  0  0
   -2.9456   -1.0617    1.6528 O   0  0  0  0  0  0  0  0  0  0  0  0
   -1.4430   -1.3175   -0.0175 O   0  0  0  0  0  0  0  0  0  0  0  0
   -1.1301    0.0422    0.2679 C   0  0  0  0  0  0  0  0  0  0  0  0
   -0.0140    0.5089   -0.6820 C   0  0  0  0  0  0  0  0  0  0  0  0
    1.2653   -0.3350   -0.5267 C   0  0  0  0  0  0  0  0  0  0  0  0
    1.6798   -0.3297    0.8389 O   0  0  0  0  0  0  0  0  0  0  0  0
    2.8762   -1.0599    1.0470 N   0  0  0  0  0  4  0  0  0  0  0  0
    3.3855   -1.5930    0.0610 O   0  0  0  0  0  1  0  0  0  0  0  0
    3.2346   -1.0568    2.2216 O   0  0  0  0  0  0  0  0  0  0  0  0
    0.3452    1.8657   -0.3937 O   0  0  0  0  0  0  0  0  0  0  0  0
   -0.4758    2.8260   -1.0339 N   0  0  0  0  0  4  0  0  0  0  0  0
   -1.4193    2.4009   -1.6997 O   0  0  0  0  0  1  0  0  0  0  0  0
   -0.1183    3.9789   -0.8117 O   0  0  0  0  0  0  0  0  0  0  0  0
   -2.0184    0.6691    0.1251 H   0  0  0  0  0  0  0  0  0  0  0  0
   -0.8036    0.1583    1.3096 H   0  0  0  0  0  0  0  0  0  0  0  0
   -0.3206    0.3814   -1.7289 H   0  0  0  0  0  0  0  0  0  0  0  0
    2.0526    0.1095   -1.1491 H   0  0  0  0  0  0  0  0  0  0  0  0
    1.0679   -1.3630   -0.8547 H   0  0  0  0  0  0  0  0  0  0  0  0
  1  2  1  0
  2  3  2  0
  2  4  1  0
  4  5  1  0
  5  6  1  0
  6  7  1  0
  7  8  1  0
  8  9  1  0
  9 10  1  0
  9 11  2  0
  6 12  1  0
 12 13  1  0
 13 14  1  0
 13 15  2  0
  5 16  1  0
  5 17  1  0
  6 18  1  0
  7 19  1  0
  7 20  1  0
M  CHG  6   1  -1   2   1   9   1  10  -1  13   1  14  -1
M  END
>  <Energy>  (3) 
-48.82752031486598

>  <Real charge>  (3) 
0

>  <Mult>  (3) 
1

$$$$
mol_619 183
     RDKit          3D

 20 19  0  0  0  0  0  0  0  0999 V2000
   -4.1113   -0.4512   -0.9429 O   0  0  0  0  0  1  0  0  0  0  0  0
   -3.2210   -0.9281   -0.2441 N   0  0  0  0  0  4  0  0  0  0  0  0
   -3.2878   -1.6906    0.7197 O   0  0  0  0  0  0  0  0  0  0  0  0
   -1.9285   -0.5082   -0.6464 O   0  0  0  0  0  0  0  0  0  0  0  0
   -0.8966   -1.0577    0.1655 C   0  0  0  0  0  0  0  0  0  0  0  0
    0.4692   -0.5869   -0.3615 C   0  0  0  0  0  0  0  0  0  0  0  0
    0.5996    0.9482   -0.3352 C   0  0  0  0  0  0  0  0  0  0  0  0
    0.3570    1.4170    0.9915 O   0  0  0  0  0  0  0  0  0  0  0  0
    0.4460    2.8276    1.0970 N   0  0  0  0  0  4  0  0  0  0  0  0
    0.7075    3.4509    0.0685 O   0  0  0  0  0  1  0  0  0  0  0  0
    0.2346    3.2305    2.2377 O   0  0  0  0  0  0  0  0  0  0  0  0
    1.4583   -1.1907    0.4814 O   0  0  0  0  0  0  0  0  0  0  0  0
    2.7171   -1.3679   -0.1426 N   0  0  0  0  0  4  0  0  0  0  0  0
    2.8381   -0.9415   -1.2905 O   0  0  0  0  0  1  0  0  0  0  0  0
    3.5318   -1.9285    0.5844 O   0  0  0  0  0  0  0  0  0  0  0  0
   -1.0209   -0.7558    1.2137 H   0  0  0  0  0  0  0  0  0  0  0  0
   -0.9214   -2.1550    0.1243 H   0  0  0  0  0  0  0  0  0  0  0  0
    0.5471   -0.9367   -1.3997 H   0  0  0  0  0  0  0  0  0  0  0  0
   -0.1302    1.3845   -1.0283 H   0  0  0  0  0  0  0  0  0  0  0  0
    1.6113    1.2401   -0.6385 H   0  0  0  0  0  0  0  0  0  0  0  0
  1  2  1  0
  2  3  2  0
  2  4  1  0
  4  5  1  0
  5  6  1  0
  6  7  1  0
  7  8  1  0
  8  9  1  0
  9 10  1  0
  9 11  2  0
  6 12  1  0
 12 13  1  0
 13 14  1  0
 13 15  2  0
  5 16  1  0
  5 17  1  0
  6 18  1  0
  7 19  1  0
  7 20  1  0
M  CHG  6   1  -1   2   1   9   1  10  -1  13   1  14  -1
M  END
>  <Energy>  (4) 
-48.755847903144634

>  <Real charge>  (4) 
0

>  <Mult>  (4) 
1

$$$$
mol_619 13
     RDKit          3D

 20 19  0  0  0  0  0  0  0  0999 V2000
    3.7592   -1.7444   -0.9460 O   0  0  0  0  0  1  0  0  0  0  0  0
    3.1388   -1.1887   -0.0435 N   0  0  0  0  0  4  0  0  0  0  0  0
    3.4521   -0.9838    1.1288 O   0  0  0  0  0  0  0  0  0  0  0  0
    1.8590   -0.7414   -0.4569 O   0  0  0  0  0  0  0  0  0  0  0  0
    1.1345   -0.0996    0.5932 C   0  0  0  0  0  0  0  0  0  0  0  0
   -0.2455    0.3307    0.0661 C   0  0  0  0  0  0  0  0  0  0  0  0
   -0.9980   -0.8723   -0.5329 C   0  0  0  0  0  0  0  0  0  0  0  0
   -2.3537   -0.5307   -0.8376 O   0  0  0  0  0  0  0  0  0  0  0  0
   -3.2337   -0.6793    0.2628 N   0  0  0  0  0  4  0  0  0  0  0  0
   -2.7265   -0.9735    1.3461 O   0  0  0  0  0  1  0  0  0  0  0  0
   -4.4054   -0.4579   -0.0293 O   0  0  0  0  0  0  0  0  0  0  0  0
   -0.0999    1.2832   -0.9996 O   0  0  0  0  0  0  0  0  0  0  0  0
    0.0722    2.6189   -0.5621 N   0  0  0  0  0  4  0  0  0  0  0  0
    0.1516    3.4159   -1.4923 O   0  0  0  0  0  1  0  0  0  0  0  0
    0.1391    2.8062    0.6521 O   0  0  0  0  0  0  0  0  0  0  0  0
    0.9907   -0.7949    1.4296 H   0  0  0  0  0  0  0  0  0  0  0  0
    1.6966    0.7768    0.9341 H   0  0  0  0  0  0  0  0  0  0  0  0
   -0.8489    0.7495    0.8797 H   0  0  0  0  0  0  0  0  0  0  0  0
   -0.5465   -1.1492   -1.4933 H   0  0  0  0  0  0  0  0  0  0  0  0
   -0.9356   -1.7657    0.1010 H   0  0  0  0  0  0  0  0  0  0  0  0
  1  2  1  0
  2  3  2  0
  2  4  1  0
  4  5  1  0
  5  6  1  0
  6  7  1  0
  7  8  1  0
  8  9  1  0
  9 10  1  0
  9 11  2  0
  6 12  1  0
 12 13  1  0
 13 14  1  0
 13 15  2  0
  5 16  1  0
  5 17  1  0
  6 18  1  0
  7 19  1  0
  7 20  1  0
M  CHG  6   1  -1   2   1   9   1  10  -1  13   1  14  -1
M  END
>  <Energy>  (5) 
-48.742023122175574

>  <Real charge>  (5) 
0

>  <Mult>  (5) 
1

$$$$
mol_619 233
     RDKit          3D

 20 19  0  0  0  0  0  0  0  0999 V2000
   -4.2398    0.5707   -0.0364 O   0  0  0  0  0  1  0  0  0  0  0  0
   -3.0422    0.8340   -0.0994 N   0  0  0  0  0  4  0  0  0  0  0  0
   -2.4012    1.4235   -0.9716 O   0  0  0  0  0  0  0  0  0  0  0  0
   -2.3151    0.3800    1.0312 O   0  0  0  0  0  0  0  0  0  0  0  0
   -0.9499    0.7984    1.0288 C   0  0  0  0  0  0  0  0  0  0  0  0
   -0.0518   -0.1276    0.1908 C   0  0  0  0  0  0  0  0  0  0  0  0
    1.3424    0.5017    0.0524 C   0  0  0  0  0  0  0  0  0  0  0  0
    2.1141   -0.3162   -0.8292 O   0  0  0  0  0  0  0  0  0  0  0  0
    3.4290    0.1775   -1.0134 N   0  0  0  0  0  4  0  0  0  0  0  0
    4.0991   -0.5222   -1.7681 O   0  0  0  0  0  1  0  0  0  0  0  0
    3.7263    1.2120   -0.4146 O   0  0  0  0  0  0  0  0  0  0  0  0
    0.1327   -1.3666    0.8947 O   0  0  0  0  0  0  0  0  0  0  0  0
   -0.7783   -2.3887    0.5333 N   0  0  0  0  0  4  0  0  0  0  0  0
   -1.6413   -2.1073   -0.2964 O   0  0  0  0  0  1  0  0  0  0  0  0
   -0.5724   -3.4375    1.1376 O   0  0  0  0  0  0  0  0  0  0  0  0
   -0.8589    1.8513    0.7324 H   0  0  0  0  0  0  0  0  0  0  0  0
   -0.6278    0.7552    2.0766 H   0  0  0  0  0  0  0  0  0  0  0  0
   -0.4405   -0.2891   -0.8209 H   0  0  0  0  0  0  0  0  0  0  0  0
    1.8272    0.5407    1.0364 H   0  0  0  0  0  0  0  0  0  0  0  0
    1.2486    1.5102   -0.3688 H   0  0  0  0  0  0  0  0  0  0  0  0
  1  2  1  0
  2  3  2  0
  2  4  1  0
  4  5  1  0
  5  6  1  0
  6  7  1  0
  7  8  1  0
  8  9  1  0
  9 10  1  0
  9 11  2  0
  6 12  1  0
 12 13  1  0
 13 14  1  0
 13 15  2  0
  5 16  1  0
  5 17  1  0
  6 18  1  0
  7 19  1  0
  7 20  1  0
M  CHG  6   1  -1   2   1   9   1  10  -1  13   1  14  -1
M  END
>  <Energy>  (6) 
-48.32957229958143

>  <Real charge>  (6) 
0

>  <Mult>  (6) 
1

$$$$
