mol_406 32
     RDKit          3D

 59 62  0  0  0  0  0  0  0  0999 V2000
    6.4807   -2.2051    1.5368 C   0  0  0  0  0  0  0  0  0  0  0  0
    5.4431   -1.1274    1.4758 C   0  0  0  0  0  0  0  0  0  0  0  0
    4.3829   -1.1476    2.0858 O   0  0  0  0  0  0  0  0  0  0  0  0
    5.8619   -0.1180    0.6637 O   0  0  0  0  0  0  0  0  0  0  0  0
    4.8843    0.8992    0.4570 C   0  0  0  0  0  0  0  0  0  0  0  0
    3.7729    0.4689   -0.5013 C   0  0  0  0  0  0  0  0  0  0  0  0
    3.8709   -0.5467   -1.1930 O   0  0  0  0  0  0  0  0  0  0  0  0
    2.5519    1.3836   -0.5727 C   0  0  0  0  0  0  0  0  0  0  0  0
    2.0383    1.5687   -2.0089 C   0  0  0  0  0  0  0  0  0  0  0  0
    0.5130    1.6080   -1.9234 C   0  0  0  0  0  0  0  0  0  0  0  0
    0.1826    1.7047   -0.4272 C   0  0  0  0  0  0  0  0  0  0  0  0
   -1.2372    1.2442   -0.0279 C   0  0  0  0  0  0  0  0  0  0  0  0
   -2.3107    1.9925   -0.8317 C   0  0  0  0  0  0  0  0  0  0  0  0
   -3.7107    1.6226   -0.3622 C   0  0  0  0  0  0  0  0  0  0  0  0
   -3.9414    0.1316   -0.4196 C   0  0  0  0  0  0  0  0  0  0  0  0
   -5.0368   -0.3480   -1.0355 C   0  0  0  0  0  0  0  0  0  0  0  0
   -5.3758   -1.7892   -1.0162 C   0  0  0  0  0  0  0  0  0  0  0  0
   -6.3722   -2.1834   -1.6172 O   0  0  0  0  0  0  0  0  0  0  0  0
   -4.5249   -2.7051   -0.1778 C   0  0  0  0  0  0  0  0  0  0  0  0
   -3.0772   -2.2354   -0.1772 C   0  0  0  0  0  0  0  0  0  0  0  0
   -2.8955   -0.7536    0.2709 C   0  0  0  0  0  0  0  0  0  0  0  0
   -3.1233   -0.6616    1.7970 C   0  0  0  0  0  0  0  0  0  0  0  0
   -1.4431   -0.2886   -0.1436 C   0  0  0  0  0  0  0  0  0  0  0  0
   -0.3214   -1.0303    0.6107 C   0  0  0  0  0  0  0  0  0  0  0  0
    1.0691   -0.6103    0.1330 C   0  0  0  0  0  0  0  0  0  0  0  0
    1.3243    0.9101    0.2502 C   0  0  0  0  0  0  0  0  0  0  0  0
    1.4755    1.3094    1.7281 C   0  0  0  0  0  0  0  0  0  0  0  0
    6.6791   -2.5860    0.5318 H   0  0  0  0  0  0  0  0  0  0  0  0
    6.1103   -3.0300    2.1522 H   0  0  0  0  0  0  0  0  0  0  0  0
    7.3956   -1.8135    1.9881 H   0  0  0  0  0  0  0  0  0  0  0  0
    5.3951    1.7547    0.0032 H   0  0  0  0  0  0  0  0  0  0  0  0
    4.4651    1.2309    1.4123 H   0  0  0  0  0  0  0  0  0  0  0  0
    2.8704    2.3759   -0.2228 H   0  0  0  0  0  0  0  0  0  0  0  0
    2.4217    2.5089   -2.4229 H   0  0  0  0  0  0  0  0  0  0  0  0
    2.3577    0.7738   -2.6913 H   0  0  0  0  0  0  0  0  0  0  0  0
    0.1095    2.4600   -2.4808 H   0  0  0  0  0  0  0  0  0  0  0  0
    0.1014    0.7012   -2.3782 H   0  0  0  0  0  0  0  0  0  0  0  0
    0.2768    2.7647   -0.1458 H   0  0  0  0  0  0  0  0  0  0  0  0
   -1.3671    1.5234    1.0261 H   0  0  0  0  0  0  0  0  0  0  0  0
   -2.1707    3.0747   -0.7229 H   0  0  0  0  0  0  0  0  0  0  0  0
   -2.2194    1.7645   -1.9010 H   0  0  0  0  0  0  0  0  0  0  0  0
   -4.4423    2.1622   -0.9762 H   0  0  0  0  0  0  0  0  0  0  0  0
   -3.8587    1.9688    0.6680 H   0  0  0  0  0  0  0  0  0  0  0  0
   -5.7616    0.2898   -1.5297 H   0  0  0  0  0  0  0  0  0  0  0  0
   -4.5749   -3.7129   -0.6047 H   0  0  0  0  0  0  0  0  0  0  0  0
   -4.9400   -2.7424    0.8342 H   0  0  0  0  0  0  0  0  0  0  0  0
   -2.6821   -2.3599   -1.1952 H   0  0  0  0  0  0  0  0  0  0  0  0
   -2.4962   -2.9086    0.4642 H   0  0  0  0  0  0  0  0  0  0  0  0
   -2.8718    0.3267    2.1944 H   0  0  0  0  0  0  0  0  0  0  0  0
   -2.5203   -1.3976    2.3395 H   0  0  0  0  0  0  0  0  0  0  0  0
   -4.1703   -0.8524    2.0604 H   0  0  0  0  0  0  0  0  0  0  0  0
   -1.3292   -0.5440   -1.2074 H   0  0  0  0  0  0  0  0  0  0  0  0
   -0.4132   -2.1113    0.4616 H   0  0  0  0  0  0  0  0  0  0  0  0
   -0.3999   -0.8564    1.6888 H   0  0  0  0  0  0  0  0  0  0  0  0
    1.1836   -0.9414   -0.9068 H   0  0  0  0  0  0  0  0  0  0  0  0
    1.8187   -1.1642    0.7116 H   0  0  0  0  0  0  0  0  0  0  0  0
    1.7103    2.3749    1.8299 H   0  0  0  0  0  0  0  0  0  0  0  0
    0.5613    1.1269    2.3008 H   0  0  0  0  0  0  0  0  0  0  0  0
    2.2800    0.7454    2.2099 H   0  0  0  0  0  0  0  0  0  0  0  0
  1  2  1  0
  2  3  2  0
  2  4  1  0
  4  5  1  0
  5  6  1  0
  6  7  2  0
  6  8  1  0
  8  9  1  0
  9 10  1  0
 10 11  1  0
 11 12  1  0
 12 13  1  0
 13 14  1  0
 14 15  1  0
 15 16  2  0
 16 17  1  0
 17 18  2  0
 17 19  1  0
 19 20  1  0
 20 21  1  0
 21 22  1  0
 21 23  1  0
 23 24  1  0
 24 25  1  0
 25 26  1  0
 26 27  1  0
 21 15  1  0
 23 12  1  0
 26  8  1  0
 26 11  1  0
  1 28  1  0
  1 29  1  0
  1 30  1  0
  5 31  1  0
  5 32  1  0
  8 33  1  0
  9 34  1  0
  9 35  1  0
 10 36  1  0
 10 37  1  0
 11 38  1  0
 12 39  1  0
 13 40  1  0
 13 41  1  0
 14 42  1  0
 14 43  1  0
 16 44  1  0
 19 45  1  0
 19 46  1  0
 20 47  1  0
 20 48  1  0
 22 49  1  0
 22 50  1  0
 22 51  1  0
 23 52  1  0
 24 53  1  0
 24 54  1  0
 25 55  1  0
 25 56  1  0
 27 57  1  0
 27 58  1  0
 27 59  1  0
M  END
>  <Energy>  (1) 
68.07507375860807

>  <Real charge>  (1) 
0

>  <Mult>  (1) 
1

$$$$
mol_406 281
     RDKit          3D

 59 62  0  0  0  0  0  0  0  0999 V2000
    7.5680   -0.2661   -2.1511 C   0  0  0  0  0  0  0  0  0  0  0  0
    6.4791   -0.2870   -1.1237 C   0  0  0  0  0  0  0  0  0  0  0  0
    6.4645    0.3973   -0.1095 O   0  0  0  0  0  0  0  0  0  0  0  0
    5.5204   -1.1892   -1.4716 O   0  0  0  0  0  0  0  0  0  0  0  0
    4.3972   -1.1963   -0.5922 C   0  0  0  0  0  0  0  0  0  0  0  0
    3.5213    0.0482   -0.7436 C   0  0  0  0  0  0  0  0  0  0  0  0
    3.4992    0.6894   -1.7966 O   0  0  0  0  0  0  0  0  0  0  0  0
    2.6470    0.4197    0.4552 C   0  0  0  0  0  0  0  0  0  0  0  0
    2.2822    1.9162    0.4852 C   0  0  0  0  0  0  0  0  0  0  0  0
    0.7847    1.9977    0.7646 C   0  0  0  0  0  0  0  0  0  0  0  0
    0.4209    0.6335    1.3591 C   0  0  0  0  0  0  0  0  0  0  0  0
   -1.0854    0.2893    1.3657 C   0  0  0  0  0  0  0  0  0  0  0  0
   -1.9014    1.3804    2.0745 C   0  0  0  0  0  0  0  0  0  0  0  0
   -3.3688    0.9909    2.1837 C   0  0  0  0  0  0  0  0  0  0  0  0
   -3.9618    0.6747    0.8316 C   0  0  0  0  0  0  0  0  0  0  0  0
   -5.1134    1.2606    0.4579 C   0  0  0  0  0  0  0  0  0  0  0  0
   -5.8024    0.8967   -0.8011 C   0  0  0  0  0  0  0  0  0  0  0  0
   -6.8388    1.4781   -1.1128 O   0  0  0  0  0  0  0  0  0  0  0  0
   -5.2446   -0.2447   -1.6085 C   0  0  0  0  0  0  0  0  0  0  0  0
   -3.7270   -0.2841   -1.4990 C   0  0  0  0  0  0  0  0  0  0  0  0
   -3.2022   -0.3402   -0.0324 C   0  0  0  0  0  0  0  0  0  0  0  0
   -3.4700   -1.7507    0.5406 C   0  0  0  0  0  0  0  0  0  0  0  0
   -1.6618    0.0138   -0.0471 C   0  0  0  0  0  0  0  0  0  0  0  0
   -0.7972   -1.0368   -0.7717 C   0  0  0  0  0  0  0  0  0  0  0  0
    0.6741   -0.6265   -0.8371 C   0  0  0  0  0  0  0  0  0  0  0  0
    1.2996   -0.3518    0.5505 C   0  0  0  0  0  0  0  0  0  0  0  0
    1.4842   -1.6722    1.3202 C   0  0  0  0  0  0  0  0  0  0  0  0
    8.3076    0.4925   -1.8794 H   0  0  0  0  0  0  0  0  0  0  0  0
    7.1510   -0.0084   -3.1279 H   0  0  0  0  0  0  0  0  0  0  0  0
    8.0615   -1.2403   -2.1876 H   0  0  0  0  0  0  0  0  0  0  0  0
    4.7291   -1.3147    0.4451 H   0  0  0  0  0  0  0  0  0  0  0  0
    3.7871   -2.0667   -0.8508 H   0  0  0  0  0  0  0  0  0  0  0  0
    3.2515    0.2332    1.3537 H   0  0  0  0  0  0  0  0  0  0  0  0
    2.8353    2.4053    1.2968 H   0  0  0  0  0  0  0  0  0  0  0  0
    2.5309    2.4592   -0.4317 H   0  0  0  0  0  0  0  0  0  0  0  0
    0.2482    2.1947   -0.1691 H   0  0  0  0  0  0  0  0  0  0  0  0
    0.5577    2.8198    1.4513 H   0  0  0  0  0  0  0  0  0  0  0  0
    0.7635    0.6357    2.4052 H   0  0  0  0  0  0  0  0  0  0  0  0
   -1.1891   -0.6299    1.9574 H   0  0  0  0  0  0  0  0  0  0  0  0
   -1.8234    2.3316    1.5334 H   0  0  0  0  0  0  0  0  0  0  0  0
   -1.5003    1.5512    3.0808 H   0  0  0  0  0  0  0  0  0  0  0  0
   -3.9141    1.8051    2.6766 H   0  0  0  0  0  0  0  0  0  0  0  0
   -3.4713    0.1138    2.8342 H   0  0  0  0  0  0  0  0  0  0  0  0
   -5.6329    1.9856    1.0751 H   0  0  0  0  0  0  0  0  0  0  0  0
   -5.5248   -0.0975   -2.6575 H   0  0  0  0  0  0  0  0  0  0  0  0
   -5.7008   -1.1770   -1.2613 H   0  0  0  0  0  0  0  0  0  0  0  0
   -3.3300    0.6131   -1.9945 H   0  0  0  0  0  0  0  0  0  0  0  0
   -3.3616   -1.1424   -2.0749 H   0  0  0  0  0  0  0  0  0  0  0  0
   -4.5424   -1.9338    0.6764 H   0  0  0  0  0  0  0  0  0  0  0  0
   -3.0963   -2.5344   -0.1269 H   0  0  0  0  0  0  0  0  0  0  0  0
   -2.9976   -1.8974    1.5170 H   0  0  0  0  0  0  0  0  0  0  0  0
   -1.5651    0.9501   -0.6164 H   0  0  0  0  0  0  0  0  0  0  0  0
   -1.1505   -1.1774   -1.7987 H   0  0  0  0  0  0  0  0  0  0  0  0
   -0.8777   -2.0107   -0.2780 H   0  0  0  0  0  0  0  0  0  0  0  0
    0.7496    0.2631   -1.4751 H   0  0  0  0  0  0  0  0  0  0  0  0
    1.2333   -1.4170   -1.3531 H   0  0  0  0  0  0  0  0  0  0  0  0
    1.9672   -1.5018    2.2891 H   0  0  0  0  0  0  0  0  0  0  0  0
    0.5302   -2.1688    1.5213 H   0  0  0  0  0  0  0  0  0  0  0  0
    2.1064   -2.3770    0.7610 H   0  0  0  0  0  0  0  0  0  0  0  0
  1  2  1  0
  2  3  2  0
  2  4  1  0
  4  5  1  0
  5  6  1  0
  6  7  2  0
  6  8  1  0
  8  9  1  0
  9 10  1  0
 10 11  1  0
 11 12  1  0
 12 13  1  0
 13 14  1  0
 14 15  1  0
 15 16  2  0
 16 17  1  0
 17 18  2  0
 17 19  1  0
 19 20  1  0
 20 21  1  0
 21 22  1  0
 21 23  1  0
 23 24  1  0
 24 25  1  0
 25 26  1  0
 26 27  1  0
 21 15  1  0
 23 12  1  0
 26  8  1  0
 26 11  1  0
  1 28  1  0
  1 29  1  0
  1 30  1  0
  5 31  1  0
  5 32  1  0
  8 33  1  0
  9 34  1  0
  9 35  1  0
 10 36  1  0
 10 37  1  0
 11 38  1  0
 12 39  1  0
 13 40  1  0
 13 41  1  0
 14 42  1  0
 14 43  1  0
 16 44  1  0
 19 45  1  0
 19 46  1  0
 20 47  1  0
 20 48  1  0
 22 49  1  0
 22 50  1  0
 22 51  1  0
 23 52  1  0
 24 53  1  0
 24 54  1  0
 25 55  1  0
 25 56  1  0
 27 57  1  0
 27 58  1  0
 27 59  1  0
M  END
>  <Energy>  (2) 
68.46888948910981

>  <Real charge>  (2) 
0

>  <Mult>  (2) 
1

$$$$
mol_406 326
     RDKit          3D

 59 62  0  0  0  0  0  0  0  0999 V2000
    7.8274    1.1288   -0.2739 C   0  0  0  0  0  0  0  0  0  0  0  0
    6.6462    0.3060    0.1380 C   0  0  0  0  0  0  0  0  0  0  0  0
    6.2838    0.1381    1.2945 O   0  0  0  0  0  0  0  0  0  0  0  0
    6.0501   -0.2423   -0.9569 O   0  0  0  0  0  0  0  0  0  0  0  0
    4.8516   -0.9553   -0.6584 C   0  0  0  0  0  0  0  0  0  0  0  0
    3.6805   -0.0303   -0.3120 C   0  0  0  0  0  0  0  0  0  0  0  0
    3.7009    1.1630   -0.6168 O   0  0  0  0  0  0  0  0  0  0  0  0
    2.5307   -0.6596    0.4760 C   0  0  0  0  0  0  0  0  0  0  0  0
    2.0390   -1.9739   -0.1416 C   0  0  0  0  0  0  0  0  0  0  0  0
    0.5727   -2.1184    0.2653 C   0  0  0  0  0  0  0  0  0  0  0  0
    0.2557   -0.9039    1.1536 C   0  0  0  0  0  0  0  0  0  0  0  0
   -1.2251   -0.4669    1.1779 C   0  0  0  0  0  0  0  0  0  0  0  0
   -2.1420   -1.6343    1.5720 C   0  0  0  0  0  0  0  0  0  0  0  0
   -3.5905   -1.1831    1.6961 C   0  0  0  0  0  0  0  0  0  0  0  0
   -4.0772   -0.5228    0.4284 C   0  0  0  0  0  0  0  0  0  0  0  0
   -5.2298   -0.9297   -0.1330 C   0  0  0  0  0  0  0  0  0  0  0  0
   -5.8143   -0.2379   -1.3043 C   0  0  0  0  0  0  0  0  0  0  0  0
   -6.8495   -0.6687   -1.8062 O   0  0  0  0  0  0  0  0  0  0  0  0
   -5.1532    1.0281   -1.7799 C   0  0  0  0  0  0  0  0  0  0  0  0
   -3.6455    0.9438   -1.5901 C   0  0  0  0  0  0  0  0  0  0  0  0
   -3.2119    0.6149   -0.1294 C   0  0  0  0  0  0  0  0  0  0  0  0
   -3.4385    1.8647    0.7518 C   0  0  0  0  0  0  0  0  0  0  0  0
   -1.6958    0.1697   -0.1544 C   0  0  0  0  0  0  0  0  0  0  0  0
   -0.7306    1.2981   -0.5653 C   0  0  0  0  0  0  0  0  0  0  0  0
    0.7212    0.8222   -0.6503 C   0  0  0  0  0  0  0  0  0  0  0  0
    1.2403    0.1862    0.6618 C   0  0  0  0  0  0  0  0  0  0  0  0
    1.4538    1.2671    1.7356 C   0  0  0  0  0  0  0  0  0  0  0  0
    8.2676    1.5984    0.6104 H   0  0  0  0  0  0  0  0  0  0  0  0
    7.5088    1.9166   -0.9612 H   0  0  0  0  0  0  0  0  0  0  0  0
    8.5791    0.4892   -0.7427 H   0  0  0  0  0  0  0  0  0  0  0  0
    4.5775   -1.5225   -1.5533 H   0  0  0  0  0  0  0  0  0  0  0  0
    5.0267   -1.6702    0.1537 H   0  0  0  0  0  0  0  0  0  0  0  0
    2.9467   -0.8877    1.4686 H   0  0  0  0  0  0  0  0  0  0  0  0
    2.1260   -1.9701   -1.2345 H   0  0  0  0  0  0  0  0  0  0  0  0
    2.6304   -2.8215    0.2226 H   0  0  0  0  0  0  0  0  0  0  0  0
    0.4069   -3.0553    0.8085 H   0  0  0  0  0  0  0  0  0  0  0  0
   -0.0507   -2.1545   -0.6337 H   0  0  0  0  0  0  0  0  0  0  0  0
    0.5302   -1.1831    2.1826 H   0  0  0  0  0  0  0  0  0  0  0  0
   -1.3105    0.2939    1.9651 H   0  0  0  0  0  0  0  0  0  0  0  0
   -2.0803   -2.4403    0.8302 H   0  0  0  0  0  0  0  0  0  0  0  0
   -1.8154   -2.0572    2.5298 H   0  0  0  0  0  0  0  0  0  0  0  0
   -4.2092   -2.0510    1.9553 H   0  0  0  0  0  0  0  0  0  0  0  0
   -3.6878   -0.4762    2.5290 H   0  0  0  0  0  0  0  0  0  0  0  0
   -5.8247   -1.7437    0.2667 H   0  0  0  0  0  0  0  0  0  0  0  0
   -5.3742    1.1562   -2.8453 H   0  0  0  0  0  0  0  0  0  0  0  0
   -5.5844    1.8755   -1.2379 H   0  0  0  0  0  0  0  0  0  0  0  0
   -3.2635    0.1673   -2.2678 H   0  0  0  0  0  0  0  0  0  0  0  0
   -3.2018    1.8896   -1.9227 H   0  0  0  0  0  0  0  0  0  0  0  0
   -2.9816    2.7569    0.3106 H   0  0  0  0  0  0  0  0  0  0  0  0
   -3.0211    1.7442    1.7564 H   0  0  0  0  0  0  0  0  0  0  0  0
   -4.5059    2.0823    0.8755 H   0  0  0  0  0  0  0  0  0  0  0  0
   -1.6156   -0.6100   -0.9259 H   0  0  0  0  0  0  0  0  0  0  0  0
   -0.7924    2.1335    0.1398 H   0  0  0  0  0  0  0  0  0  0  0  0
   -1.0086    1.6975   -1.5464 H   0  0  0  0  0  0  0  0  0  0  0  0
    0.8019    0.1126   -1.4829 H   0  0  0  0  0  0  0  0  0  0  0  0
    1.3377    1.6844   -0.9283 H   0  0  0  0  0  0  0  0  0  0  0  0
    1.8341    0.8317    2.6667 H   0  0  0  0  0  0  0  0  0  0  0  0
    0.5259    1.7915    1.9824 H   0  0  0  0  0  0  0  0  0  0  0  0
    2.1783    2.0183    1.4047 H   0  0  0  0  0  0  0  0  0  0  0  0
  1  2  1  0
  2  3  2  0
  2  4  1  0
  4  5  1  0
  5  6  1  0
  6  7  2  0
  6  8  1  0
  8  9  1  0
  9 10  1  0
 10 11  1  0
 11 12  1  0
 12 13  1  0
 13 14  1  0
 14 15  1  0
 15 16  2  0
 16 17  1  0
 17 18  2  0
 17 19  1  0
 19 20  1  0
 20 21  1  0
 21 22  1  0
 21 23  1  0
 23 24  1  0
 24 25  1  0
 25 26  1  0
 26 27  1  0
 21 15  1  0
 23 12  1  0
 26  8  1  0
 26 11  1  0
  1 28  1  0
  1 29  1  0
  1 30  1  0
  5 31  1  0
  5 32  1  0
  8 33  1  0
  9 34  1  0
  9 35  1  0
 10 36  1  0
 10 37  1  0
 11 38  1  0
 12 39  1  0
 13 40  1  0
 13 41  1  0
 14 42  1  0
 14 43  1  0
 16 44  1  0
 19 45  1  0
 19 46  1  0
 20 47  1  0
 20 48  1  0
 22 49  1  0
 22 50  1  0
 22 51  1  0
 23 52  1  0
 24 53  1  0
 24 54  1  0
 25 55  1  0
 25 56  1  0
 27 57  1  0
 27 58  1  0
 27 59  1  0
M  END
>  <Energy>  (3) 
68.48566671956169

>  <Real charge>  (3) 
0

>  <Mult>  (3) 
1

$$$$
mol_406 192
     RDKit          3D

 59 62  0  0  0  0  0  0  0  0999 V2000
    6.9880   -0.3175    2.2125 C   0  0  0  0  0  0  0  0  0  0  0  0
    5.9394    0.1633    1.2580 C   0  0  0  0  0  0  0  0  0  0  0  0
    5.0918    1.0055    1.5213 O   0  0  0  0  0  0  0  0  0  0  0  0
    6.0808   -0.4561    0.0531 O   0  0  0  0  0  0  0  0  0  0  0  0
    5.0498   -0.1331   -0.8789 C   0  0  0  0  0  0  0  0  0  0  0  0
    3.7154   -0.8081   -0.5420 C   0  0  0  0  0  0  0  0  0  0  0  0
    3.6656   -1.7476    0.2543 O   0  0  0  0  0  0  0  0  0  0  0  0
    2.4934   -0.3471   -1.3402 C   0  0  0  0  0  0  0  0  0  0  0  0
    2.3091    1.1750   -1.3284 C   0  0  0  0  0  0  0  0  0  0  0  0
    0.8135    1.4322   -1.5096 C   0  0  0  0  0  0  0  0  0  0  0  0
    0.1620    0.0501   -1.6766 C   0  0  0  0  0  0  0  0  0  0  0  0
   -1.3215   -0.0393   -1.2571 C   0  0  0  0  0  0  0  0  0  0  0  0
   -2.1699    1.0103   -1.9901 C   0  0  0  0  0  0  0  0  0  0  0  0
   -3.6474    0.8579   -1.6572 C   0  0  0  0  0  0  0  0  0  0  0  0
   -3.8909    0.9164   -0.1682 C   0  0  0  0  0  0  0  0  0  0  0  0
   -4.8273    1.7494    0.3200 C   0  0  0  0  0  0  0  0  0  0  0  0
   -5.1925    1.7588    1.7549 C   0  0  0  0  0  0  0  0  0  0  0  0
   -6.0321    2.5593    2.1593 O   0  0  0  0  0  0  0  0  0  0  0  0
   -4.5765    0.7157    2.6484 C   0  0  0  0  0  0  0  0  0  0  0  0
   -3.1567    0.4011    2.1992 C   0  0  0  0  0  0  0  0  0  0  0  0
   -3.0486   -0.0242    0.7036 C   0  0  0  0  0  0  0  0  0  0  0  0
   -3.6147   -1.4544    0.5487 C   0  0  0  0  0  0  0  0  0  0  0  0
   -1.5302    0.0655    0.2750 C   0  0  0  0  0  0  0  0  0  0  0  0
   -0.6266   -0.9523    0.9970 C   0  0  0  0  0  0  0  0  0  0  0  0
    0.8475   -0.7973    0.6171 C   0  0  0  0  0  0  0  0  0  0  0  0
    1.1077   -0.9039   -0.9053 C   0  0  0  0  0  0  0  0  0  0  0  0
    0.9359   -2.3573   -1.3801 C   0  0  0  0  0  0  0  0  0  0  0  0
    6.8333    0.1531    3.1876 H   0  0  0  0  0  0  0  0  0  0  0  0
    6.9091   -1.4007    2.3351 H   0  0  0  0  0  0  0  0  0  0  0  0
    7.9791   -0.0426    1.8432 H   0  0  0  0  0  0  0  0  0  0  0  0
    5.3664   -0.5039   -1.8591 H   0  0  0  0  0  0  0  0  0  0  0  0
    4.9402    0.9530   -0.9532 H   0  0  0  0  0  0  0  0  0  0  0  0
    2.6870   -0.6562   -2.3779 H   0  0  0  0  0  0  0  0  0  0  0  0
    2.8834    1.6431   -2.1358 H   0  0  0  0  0  0  0  0  0  0  0  0
    2.6547    1.6213   -0.3885 H   0  0  0  0  0  0  0  0  0  0  0  0
    0.4312    1.9739   -0.6387 H   0  0  0  0  0  0  0  0  0  0  0  0
    0.6272    2.0623   -2.3863 H   0  0  0  0  0  0  0  0  0  0  0  0
    0.2138   -0.1983   -2.7479 H   0  0  0  0  0  0  0  0  0  0  0  0
   -1.6757   -1.0272   -1.5801 H   0  0  0  0  0  0  0  0  0  0  0  0
   -2.0346    0.9077   -3.0736 H   0  0  0  0  0  0  0  0  0  0  0  0
   -1.8452    2.0235   -1.7228 H   0  0  0  0  0  0  0  0  0  0  0  0
   -4.2098    1.6391   -2.1832 H   0  0  0  0  0  0  0  0  0  0  0  0
   -4.0167   -0.0999   -2.0435 H   0  0  0  0  0  0  0  0  0  0  0  0
   -5.4070    2.4172   -0.3080 H   0  0  0  0  0  0  0  0  0  0  0  0
   -4.5508    1.1063    3.6717 H   0  0  0  0  0  0  0  0  0  0  0  0
   -5.2121   -0.1753    2.6393 H   0  0  0  0  0  0  0  0  0  0  0  0
   -2.7519   -0.3792    2.8545 H   0  0  0  0  0  0  0  0  0  0  0  0
   -2.5433    1.2971    2.3691 H   0  0  0  0  0  0  0  0  0  0  0  0
   -4.6984   -1.4788    0.7132 H   0  0  0  0  0  0  0  0  0  0  0  0
   -3.4365   -1.8642   -0.4504 H   0  0  0  0  0  0  0  0  0  0  0  0
   -3.1682   -2.1449    1.2721 H   0  0  0  0  0  0  0  0  0  0  0  0
   -1.1829    1.0645    0.5763 H   0  0  0  0  0  0  0  0  0  0  0  0
   -0.9468   -1.9759    0.7765 H   0  0  0  0  0  0  0  0  0  0  0  0
   -0.7061   -0.8282    2.0822 H   0  0  0  0  0  0  0  0  0  0  0  0
    1.4119   -1.5655    1.1574 H   0  0  0  0  0  0  0  0  0  0  0  0
    1.2028    0.1657    1.0041 H   0  0  0  0  0  0  0  0  0  0  0  0
    1.6270   -3.0296   -0.8616 H   0  0  0  0  0  0  0  0  0  0  0  0
   -0.0777   -2.7303   -1.2059 H   0  0  0  0  0  0  0  0  0  0  0  0
    1.1318   -2.4492   -2.4544 H   0  0  0  0  0  0  0  0  0  0  0  0
  1  2  1  0
  2  3  2  0
  2  4  1  0
  4  5  1  0
  5  6  1  0
  6  7  2  0
  6  8  1  0
  8  9  1  0
  9 10  1  0
 10 11  1  0
 11 12  1  0
 12 13  1  0
 13 14  1  0
 14 15  1  0
 15 16  2  0
 16 17  1  0
 17 18  2  0
 17 19  1  0
 19 20  1  0
 20 21  1  0
 21 22  1  0
 21 23  1  0
 23 24  1  0
 24 25  1  0
 25 26  1  0
 26 27  1  0
 21 15  1  0
 23 12  1  0
 26  8  1  0
 26 11  1  0
  1 28  1  0
  1 29  1  0
  1 30  1  0
  5 31  1  0
  5 32  1  0
  8 33  1  0
  9 34  1  0
  9 35  1  0
 10 36  1  0
 10 37  1  0
 11 38  1  0
 12 39  1  0
 13 40  1  0
 13 41  1  0
 14 42  1  0
 14 43  1  0
 16 44  1  0
 19 45  1  0
 19 46  1  0
 20 47  1  0
 20 48  1  0
 22 49  1  0
 22 50  1  0
 22 51  1  0
 23 52  1  0
 24 53  1  0
 24 54  1  0
 25 55  1  0
 25 56  1  0
 27 57  1  0
 27 58  1  0
 27 59  1  0
M  END
>  <Energy>  (4) 
68.58961815773588

>  <Real charge>  (4) 
0

>  <Mult>  (4) 
1

$$$$
mol_406 418
     RDKit          3D

 59 62  0  0  0  0  0  0  0  0999 V2000
    7.0965   -0.6425   -1.8528 C   0  0  0  0  0  0  0  0  0  0  0  0
    5.9537   -0.9575   -0.9380 C   0  0  0  0  0  0  0  0  0  0  0  0
    5.0601   -1.7532   -1.1918 O   0  0  0  0  0  0  0  0  0  0  0  0
    6.0702   -0.2494    0.2184 O   0  0  0  0  0  0  0  0  0  0  0  0
    4.9631   -0.3951    1.1048 C   0  0  0  0  0  0  0  0  0  0  0  0
    3.7585    0.4515    0.6921 C   0  0  0  0  0  0  0  0  0  0  0  0
    3.8208    1.2764   -0.2216 O   0  0  0  0  0  0  0  0  0  0  0  0
    2.4785    0.2375    1.5064 C   0  0  0  0  0  0  0  0  0  0  0  0
    1.9619    1.5908    2.0178 C   0  0  0  0  0  0  0  0  0  0  0  0
    0.7258    1.9365    1.1838 C   0  0  0  0  0  0  0  0  0  0  0  0
    0.6291    0.8671    0.0849 C   0  0  0  0  0  0  0  0  0  0  0  0
   -0.7892    0.6088   -0.4715 C   0  0  0  0  0  0  0  0  0  0  0  0
   -1.4280    1.9094   -0.9809 C   0  0  0  0  0  0  0  0  0  0  0  0
   -2.7809    1.6463   -1.6265 C   0  0  0  0  0  0  0  0  0  0  0  0
   -3.7149    0.9229   -0.6858 C   0  0  0  0  0  0  0  0  0  0  0  0
   -4.9541    1.4035   -0.4794 C   0  0  0  0  0  0  0  0  0  0  0  0
   -5.9498    0.6699    0.3345 C   0  0  0  0  0  0  0  0  0  0  0  0
   -7.0574    1.1652    0.5270 O   0  0  0  0  0  0  0  0  0  0  0  0
   -5.5865   -0.7066    0.8235 C   0  0  0  0  0  0  0  0  0  0  0  0
   -4.1012   -0.7809    1.1466 C   0  0  0  0  0  0  0  0  0  0  0  0
   -3.1776   -0.3588   -0.0359 C   0  0  0  0  0  0  0  0  0  0  0  0
   -3.1901   -1.4776   -1.1026 C   0  0  0  0  0  0  0  0  0  0  0  0
   -1.7284   -0.0997    0.5395 C   0  0  0  0  0  0  0  0  0  0  0  0
   -1.0512   -1.3697    1.0935 C   0  0  0  0  0  0  0  0  0  0  0  0
    0.3234   -1.0765    1.6958 C   0  0  0  0  0  0  0  0  0  0  0  0
    1.2952   -0.3757    0.7121 C   0  0  0  0  0  0  0  0  0  0  0  0
    1.7502   -1.3824   -0.3580 C   0  0  0  0  0  0  0  0  0  0  0  0
    6.9629   -1.1782   -2.7970 H   0  0  0  0  0  0  0  0  0  0  0  0
    8.0359   -0.9639   -1.3963 H   0  0  0  0  0  0  0  0  0  0  0  0
    7.1177    0.4296   -2.0641 H   0  0  0  0  0  0  0  0  0  0  0  0
    4.6702   -1.4467    1.1997 H   0  0  0  0  0  0  0  0  0  0  0  0
    5.2889   -0.0470    2.0903 H   0  0  0  0  0  0  0  0  0  0  0  0
    2.7455   -0.3953    2.3621 H   0  0  0  0  0  0  0  0  0  0  0  0
    2.7132    2.3855    1.9529 H   0  0  0  0  0  0  0  0  0  0  0  0
    1.6762    1.5120    3.0736 H   0  0  0  0  0  0  0  0  0  0  0  0
   -0.1558    1.9472    1.8326 H   0  0  0  0  0  0  0  0  0  0  0  0
    0.8152    2.9387    0.7502 H   0  0  0  0  0  0  0  0  0  0  0  0
    1.2464    1.2148   -0.7561 H   0  0  0  0  0  0  0  0  0  0  0  0
   -0.6644   -0.0544   -1.3379 H   0  0  0  0  0  0  0  0  0  0  0  0
   -1.5565    2.6234   -0.1578 H   0  0  0  0  0  0  0  0  0  0  0  0
   -0.7675    2.3858   -1.7155 H   0  0  0  0  0  0  0  0  0  0  0  0
   -2.6473    1.0436   -2.5331 H   0  0  0  0  0  0  0  0  0  0  0  0
   -3.2077    2.6026   -1.9532 H   0  0  0  0  0  0  0  0  0  0  0  0
   -5.3149    2.3182   -0.9372 H   0  0  0  0  0  0  0  0  0  0  0  0
   -6.1623   -0.9156    1.7319 H   0  0  0  0  0  0  0  0  0  0  0  0
   -5.8739   -1.4381    0.0619 H   0  0  0  0  0  0  0  0  0  0  0  0
   -3.8694   -1.8011    1.4746 H   0  0  0  0  0  0  0  0  0  0  0  0
   -3.9109   -0.1273    2.0096 H   0  0  0  0  0  0  0  0  0  0  0  0
   -2.9800   -2.4577   -0.6613 H   0  0  0  0  0  0  0  0  0  0  0  0
   -2.4503   -1.3066   -1.8909 H   0  0  0  0  0  0  0  0  0  0  0  0
   -4.1667   -1.5538   -1.5950 H   0  0  0  0  0  0  0  0  0  0  0  0
   -1.8526    0.5859    1.3906 H   0  0  0  0  0  0  0  0  0  0  0  0
   -0.9484   -2.1261    0.3092 H   0  0  0  0  0  0  0  0  0  0  0  0
   -1.6701   -1.8185    1.8777 H   0  0  0  0  0  0  0  0  0  0  0  0
    0.7678   -2.0157    2.0497 H   0  0  0  0  0  0  0  0  0  0  0  0
    0.1740   -0.4633    2.5937 H   0  0  0  0  0  0  0  0  0  0  0  0
    0.9054   -1.8315   -0.8885 H   0  0  0  0  0  0  0  0  0  0  0  0
    2.3269   -2.1971    0.0936 H   0  0  0  0  0  0  0  0  0  0  0  0
    2.3752   -0.9094   -1.1222 H   0  0  0  0  0  0  0  0  0  0  0  0
  1  2  1  0
  2  3  2  0
  2  4  1  0
  4  5  1  0
  5  6  1  0
  6  7  2  0
  6  8  1  0
  8  9  1  0
  9 10  1  0
 10 11  1  0
 11 12  1  0
 12 13  1  0
 13 14  1  0
 14 15  1  0
 15 16  2  0
 16 17  1  0
 17 18  2  0
 17 19  1  0
 19 20  1  0
 20 21  1  0
 21 22  1  0
 21 23  1  0
 23 24  1  0
 24 25  1  0
 25 26  1  0
 26 27  1  0
 21 15  1  0
 23 12  1  0
 26  8  1  0
 26 11  1  0
  1 28  1  0
  1 29  1  0
  1 30  1  0
  5 31  1  0
  5 32  1  0
  8 33  1  0
  9 34  1  0
  9 35  1  0
 10 36  1  0
 10 37  1  0
 11 38  1  0
 12 39  1  0
 13 40  1  0
 13 41  1  0
 14 42  1  0
 14 43  1  0
 16 44  1  0
 19 45  1  0
 19 46  1  0
 20 47  1  0
 20 48  1  0
 22 49  1  0
 22 50  1  0
 22 51  1  0
 23 52  1  0
 24 53  1  0
 24 54  1  0
 25 55  1  0
 25 56  1  0
 27 57  1  0
 27 58  1  0
 27 59  1  0
M  END
>  <Energy>  (5) 
68.66894884378168

>  <Real charge>  (5) 
0

>  <Mult>  (5) 
1

$$$$
mol_406 127
     RDKit          3D

 59 62  0  0  0  0  0  0  0  0999 V2000
    7.8193   -1.2690    0.2644 C   0  0  0  0  0  0  0  0  0  0  0  0
    6.6621   -0.3742    0.5835 C   0  0  0  0  0  0  0  0  0  0  0  0
    6.3376   -0.0318    1.7123 O   0  0  0  0  0  0  0  0  0  0  0  0
    6.0408    0.0178   -0.5635 O   0  0  0  0  0  0  0  0  0  0  0  0
    4.8588    0.7841   -0.3414 C   0  0  0  0  0  0  0  0  0  0  0  0
    3.6822   -0.0696    0.1350 C   0  0  0  0  0  0  0  0  0  0  0  0
    3.6998   -1.3003    0.0622 O   0  0  0  0  0  0  0  0  0  0  0  0
    2.4638    0.6935    0.6638 C   0  0  0  0  0  0  0  0  0  0  0  0
    2.0057    0.0728    1.9921 C   0  0  0  0  0  0  0  0  0  0  0  0
    0.7325   -0.7225    1.6923 C   0  0  0  0  0  0  0  0  0  0  0  0
    0.5364   -0.6758    0.1686 C   0  0  0  0  0  0  0  0  0  0  0  0
   -0.9225   -0.8209   -0.3201 C   0  0  0  0  0  0  0  0  0  0  0  0
   -1.5654   -2.1022    0.2316 C   0  0  0  0  0  0  0  0  0  0  0  0
   -2.9649   -2.3061   -0.3307 C   0  0  0  0  0  0  0  0  0  0  0  0
   -3.8483   -1.1089   -0.0727 C   0  0  0  0  0  0  0  0  0  0  0  0
   -5.0601   -1.2849    0.4839 C   0  0  0  0  0  0  0  0  0  0  0  0
   -6.0148   -0.1648    0.6459 C   0  0  0  0  0  0  0  0  0  0  0  0
   -7.0975   -0.3662    1.1902 O   0  0  0  0  0  0  0  0  0  0  0  0
   -5.6481    1.1681    0.0504 C   0  0  0  0  0  0  0  0  0  0  0  0
   -4.1460    1.3960    0.1405 C   0  0  0  0  0  0  0  0  0  0  0  0
   -3.2966    0.2571   -0.5006 C   0  0  0  0  0  0  0  0  0  0  0  0
   -3.4077    0.3571   -2.0392 C   0  0  0  0  0  0  0  0  0  0  0  0
   -1.8057    0.4133    0.0007 C   0  0  0  0  0  0  0  0  0  0  0  0
   -1.1204    1.7007   -0.5009 C   0  0  0  0  0  0  0  0  0  0  0  0
    0.2974    1.8529    0.0511 C   0  0  0  0  0  0  0  0  0  0  0  0
    1.2161    0.6428   -0.2575 C   0  0  0  0  0  0  0  0  0  0  0  0
    1.5751    0.6454   -1.7536 C   0  0  0  0  0  0  0  0  0  0  0  0
    7.4701   -2.1424   -0.2923 H   0  0  0  0  0  0  0  0  0  0  0  0
    8.5659   -0.7177   -0.3124 H   0  0  0  0  0  0  0  0  0  0  0  0
    8.2784   -1.6134    1.1955 H   0  0  0  0  0  0  0  0  0  0  0  0
    5.0555    1.5932    0.3709 H   0  0  0  0  0  0  0  0  0  0  0  0
    4.5785    1.2387   -1.2963 H   0  0  0  0  0  0  0  0  0  0  0  0
    2.7814    1.7288    0.8385 H   0  0  0  0  0  0  0  0  0  0  0  0
    2.7690   -0.5654    2.4507 H   0  0  0  0  0  0  0  0  0  0  0  0
    1.7769    0.8620    2.7184 H   0  0  0  0  0  0  0  0  0  0  0  0
    0.8264   -1.7560    2.0435 H   0  0  0  0  0  0  0  0  0  0  0  0
   -0.1075   -0.2766    2.2343 H   0  0  0  0  0  0  0  0  0  0  0  0
    1.1018   -1.5190   -0.2537 H   0  0  0  0  0  0  0  0  0  0  0  0
   -0.8729   -0.9254   -1.4123 H   0  0  0  0  0  0  0  0  0  0  0  0
   -0.9462   -2.9700   -0.0260 H   0  0  0  0  0  0  0  0  0  0  0  0
   -1.6212   -2.0644    1.3266 H   0  0  0  0  0  0  0  0  0  0  0  0
   -2.9071   -2.4827   -1.4117 H   0  0  0  0  0  0  0  0  0  0  0  0
   -3.3916   -3.2169    0.1073 H   0  0  0  0  0  0  0  0  0  0  0  0
   -5.4311   -2.2564    0.7923 H   0  0  0  0  0  0  0  0  0  0  0  0
   -6.0026    1.2008   -0.9845 H   0  0  0  0  0  0  0  0  0  0  0  0
   -6.1645    1.9537    0.6130 H   0  0  0  0  0  0  0  0  0  0  0  0
   -3.9144    2.3614   -0.3249 H   0  0  0  0  0  0  0  0  0  0  0  0
   -3.8830    1.4934    1.2032 H   0  0  0  0  0  0  0  0  0  0  0  0
   -2.7203   -0.3250   -2.5492 H   0  0  0  0  0  0  0  0  0  0  0  0
   -3.1898    1.3700   -2.3941 H   0  0  0  0  0  0  0  0  0  0  0  0
   -4.4173    0.1089   -2.3872 H   0  0  0  0  0  0  0  0  0  0  0  0
   -1.8552    0.4910    1.0967 H   0  0  0  0  0  0  0  0  0  0  0  0
   -1.6946    2.5810   -0.1931 H   0  0  0  0  0  0  0  0  0  0  0  0
   -1.0865    1.7195   -1.5947 H   0  0  0  0  0  0  0  0  0  0  0  0
    0.7438    2.7701   -0.3543 H   0  0  0  0  0  0  0  0  0  0  0  0
    0.2217    2.0148    1.1339 H   0  0  0  0  0  0  0  0  0  0  0  0
    2.1805   -0.2238   -2.0308 H   0  0  0  0  0  0  0  0  0  0  0  0
    2.1401    1.5464   -2.0167 H   0  0  0  0  0  0  0  0  0  0  0  0
    0.6863    0.6169   -2.3908 H   0  0  0  0  0  0  0  0  0  0  0  0
  1  2  1  0
  2  3  2  0
  2  4  1  0
  4  5  1  0
  5  6  1  0
  6  7  2  0
  6  8  1  0
  8  9  1  0
  9 10  1  0
 10 11  1  0
 11 12  1  0
 12 13  1  0
 13 14  1  0
 14 15  1  0
 15 16  2  0
 16 17  1  0
 17 18  2  0
 17 19  1  0
 19 20  1  0
 20 21  1  0
 21 22  1  0
 21 23  1  0
 23 24  1  0
 24 25  1  0
 25 26  1  0
 26 27  1  0
 21 15  1  0
 23 12  1  0
 26  8  1  0
 26 11  1  0
  1 28  1  0
  1 29  1  0
  1 30  1  0
  5 31  1  0
  5 32  1  0
  8 33  1  0
  9 34  1  0
  9 35  1  0
 10 36  1  0
 10 37  1  0
 11 38  1  0
 12 39  1  0
 13 40  1  0
 13 41  1  0
 14 42  1  0
 14 43  1  0
 16 44  1  0
 19 45  1  0
 19 46  1  0
 20 47  1  0
 20 48  1  0
 22 49  1  0
 22 50  1  0
 22 51  1  0
 23 52  1  0
 24 53  1  0
 24 54  1  0
 25 55  1  0
 25 56  1  0
 27 57  1  0
 27 58  1  0
 27 59  1  0
M  END
>  <Energy>  (6) 
68.96766464983263

>  <Real charge>  (6) 
0

>  <Mult>  (6) 
1

$$$$
