mol_526 15
     RDKit          3D

 17 18  0  0  0  0  0  0  0  0999 V2000
   -3.9207   -0.0292   -0.0437 O   0  0  0  0  0  0  0  0  0  0  0  0
   -2.9410   -0.7182   -0.2984 C   0  0  0  0  0  0  0  0  0  0  0  0
   -1.5632   -0.2262   -0.0993 C   0  0  0  0  0  0  0  0  0  0  0  0
   -1.3454    1.0750    0.3988 C   0  0  0  0  0  0  0  0  0  0  0  0
   -0.0439    1.5484    0.5902 C   0  0  0  0  0  0  0  0  0  0  0  0
    0.9971    0.7009    0.2756 C   0  0  0  0  0  0  0  0  0  0  0  0
    2.3201    0.9893    0.3966 O   0  0  0  0  0  0  0  0  0  0  0  0
    2.9126   -0.2414   -0.0679 C   0  0  0  0  0  0  0  0  0  0  0  0
    1.9394   -1.2352   -0.4550 O   0  0  0  0  0  0  0  0  0  0  0  0
    0.7795   -0.5686   -0.2104 C   0  0  0  0  0  0  0  0  0  0  0  0
   -0.4901   -1.0676   -0.4113 C   0  0  0  0  0  0  0  0  0  0  0  0
   -3.0469   -1.7437   -0.6904 H   0  0  0  0  0  0  0  0  0  0  0  0
   -2.1928    1.7163    0.6364 H   0  0  0  0  0  0  0  0  0  0  0  0
    0.1412    2.5462    0.9723 H   0  0  0  0  0  0  0  0  0  0  0  0
    3.5499   -0.0200   -0.9317 H   0  0  0  0  0  0  0  0  0  0  0  0
    3.5361   -0.6550    0.7331 H   0  0  0  0  0  0  0  0  0  0  0  0
   -0.6318   -2.0711   -0.7952 H   0  0  0  0  0  0  0  0  0  0  0  0
  1  2  2  0
  2  3  1  0
  3  4  2  0
  4  5  1  0
  5  6  2  0
  6  7  1  0
  7  8  1  0
  8  9  1  0
  9 10  1  0
 10 11  2  0
 10  6  1  0
 11  3  1  0
  2 12  1  0
  4 13  1  0
  5 14  1  0
  8 15  1  0
  8 16  1  0
 11 17  1  0
M  END
>  <Energy>  (1) 
27.524917278679265

>  <Real charge>  (1) 
0

>  <Mult>  (1) 
1

$$$$
mol_526 45
     RDKit          3D

 17 18  0  0  0  0  0  0  0  0999 V2000
   -3.2130   -1.8254    0.6473 O   0  0  0  0  0  0  0  0  0  0  0  0
   -2.9524   -0.6795    0.3038 C   0  0  0  0  0  0  0  0  0  0  0  0
   -1.5645   -0.2111    0.1175 C   0  0  0  0  0  0  0  0  0  0  0  0
   -1.3398    1.1231   -0.2796 C   0  0  0  0  0  0  0  0  0  0  0  0
   -0.0345    1.5905   -0.4626 C   0  0  0  0  0  0  0  0  0  0  0  0
    1.0006    0.7059   -0.2417 C   0  0  0  0  0  0  0  0  0  0  0  0
    2.3245    0.9872   -0.3711 O   0  0  0  0  0  0  0  0  0  0  0  0
    2.9095   -0.2850   -0.0210 C   0  0  0  0  0  0  0  0  0  0  0  0
    1.9318   -1.2934    0.3081 O   0  0  0  0  0  0  0  0  0  0  0  0
    0.7761   -0.5956    0.1459 C   0  0  0  0  0  0  0  0  0  0  0  0
   -0.4963   -1.0891    0.3354 C   0  0  0  0  0  0  0  0  0  0  0  0
   -3.7507    0.0582    0.1172 H   0  0  0  0  0  0  0  0  0  0  0  0
   -2.1736    1.8008   -0.4474 H   0  0  0  0  0  0  0  0  0  0  0  0
    0.1621    2.6125   -0.7677 H   0  0  0  0  0  0  0  0  0  0  0  0
    3.5698   -0.1416    0.8421 H   0  0  0  0  0  0  0  0  0  0  0  0
    3.5086   -0.6401   -0.8674 H   0  0  0  0  0  0  0  0  0  0  0  0
   -0.6583   -2.1175    0.6411 H   0  0  0  0  0  0  0  0  0  0  0  0
  1  2  2  0
  2  3  1  0
  3  4  2  0
  4  5  1  0
  5  6  2  0
  6  7  1  0
  7  8  1  0
  8  9  1  0
  9 10  1  0
 10 11  2  0
 10  6  1  0
 11  3  1  0
  2 12  1  0
  4 13  1  0
  5 14  1  0
  8 15  1  0
  8 16  1  0
 11 17  1  0
M  END
>  <Energy>  (2) 
27.942152772017156

>  <Real charge>  (2) 
0

>  <Mult>  (2) 
1

$$$$
