mol_741 142
     RDKit          3D

 32 34  0  0  0  0  0  0  0  0999 V2000
    0.5458   -0.6509    2.6441 Cl  0  0  0  0  0  0  0  0  0  0  0  0
    1.8137   -0.6134    1.4714 C   0  0  0  0  0  0  0  0  0  0  0  0
    2.9729   -1.3434    1.7558 C   0  0  0  0  0  0  0  0  0  0  0  0
    4.0555   -1.3213    0.8740 C   0  0  0  0  0  0  0  0  0  0  0  0
    3.9905   -0.5607   -0.2918 C   0  0  0  0  0  0  0  0  0  0  0  0
    2.8380    0.1693   -0.5834 C   0  0  0  0  0  0  0  0  0  0  0  0
    1.7378    0.1323    0.2873 C   0  0  0  0  0  0  0  0  0  0  0  0
    0.5345    0.9257   -0.1085 C   0  0  0  0  0  0  0  0  0  0  0  0
    0.7384    2.1715   -0.3677 N   0  0  0  0  0  0  0  0  0  0  0  0
   -0.3760    3.0159   -0.7774 C   0  0  0  0  0  0  0  0  0  0  0  0
   -1.3581    3.2069    0.3627 C   0  0  0  0  0  0  0  0  0  0  0  0
   -1.6053    4.3115    0.8486 O   0  0  0  0  0  0  0  0  0  0  0  0
   -2.0771    2.1179    0.7792 N   0  0  0  0  0  0  0  0  0  0  0  0
   -1.9618    0.7953    0.3292 C   0  0  0  0  0  0  0  0  0  0  0  0
   -3.1156    0.0039    0.4407 C   0  0  0  0  0  0  0  0  0  0  0  0
   -3.1314   -1.3119   -0.0285 C   0  0  0  0  0  0  0  0  0  0  0  0
   -1.9773   -1.8488   -0.6051 C   0  0  0  0  0  0  0  0  0  0  0  0
   -0.8038   -1.0891   -0.6861 C   0  0  0  0  0  0  0  0  0  0  0  0
   -0.7850    0.2277   -0.1911 C   0  0  0  0  0  0  0  0  0  0  0  0
   -1.9882   -3.2283   -1.1090 N   0  0  0  0  0  4  0  0  0  0  0  0
   -0.9332   -3.6754   -1.5797 O   0  0  0  0  0  1  0  0  0  0  0  0
   -3.0513   -3.8595   -1.0354 O   0  0  0  0  0  0  0  0  0  0  0  0
    3.0458   -1.9250    2.6722 H   0  0  0  0  0  0  0  0  0  0  0  0
    4.9556   -1.8868    1.1044 H   0  0  0  0  0  0  0  0  0  0  0  0
    4.8396   -0.5297   -0.9708 H   0  0  0  0  0  0  0  0  0  0  0  0
    2.7981    0.7710   -1.4895 H   0  0  0  0  0  0  0  0  0  0  0  0
   -0.8895    2.6262   -1.6639 H   0  0  0  0  0  0  0  0  0  0  0  0
    0.0184    4.0007   -1.0511 H   0  0  0  0  0  0  0  0  0  0  0  0
   -2.8527    2.3724    1.3792 H   0  0  0  0  0  0  0  0  0  0  0  0
   -4.0289    0.4144    0.8688 H   0  0  0  0  0  0  0  0  0  0  0  0
   -4.0473   -1.8945    0.0567 H   0  0  0  0  0  0  0  0  0  0  0  0
    0.0981   -1.5241   -1.1133 H   0  0  0  0  0  0  0  0  0  0  0  0
  1  2  1  0
  2  3  2  0
  3  4  1  0
  4  5  2  0
  5  6  1  0
  6  7  2  0
  7  8  1  0
  8  9  2  0
  9 10  1  0
 10 11  1  0
 11 12  2  0
 11 13  1  0
 13 14  1  0
 14 15  2  0
 15 16  1  0
 16 17  2  0
 17 18  1  0
 18 19  2  0
 17 20  1  0
 20 21  1  0
 20 22  2  0
  7  2  1  0
 19  8  1  0
 19 14  1  0
  3 23  1  0
  4 24  1  0
  5 25  1  0
  6 26  1  0
 10 27  1  0
 10 28  1  0
 13 29  1  0
 15 30  1  0
 16 31  1  0
 18 32  1  0
M  CHG  2  20   1  21  -1
M  END
>  <Energy>  (1) 
131.91635923491512

>  <Real charge>  (1) 
0

>  <Mult>  (1) 
1

$$$$
