mol_522 274
     RDKit          3D

 37 38  0  0  0  0  0  0  0  0999 V2000
   -2.4606    2.4375    0.7972 C   0  0  0  0  0  0  0  0  0  0  0  0
   -2.8013    0.9459    0.8037 C   0  0  0  0  0  0  0  0  0  0  0  0
   -3.4909    0.5396   -0.5078 C   0  0  0  0  0  0  0  0  0  0  0  0
   -3.8497   -0.9442   -0.5186 C   0  0  0  0  0  0  0  0  0  0  0  0
   -2.6411   -1.8267   -0.2256 C   0  0  0  0  0  0  0  0  0  0  0  0
   -1.9501   -1.4256    1.0774 C   0  0  0  0  0  0  0  0  0  0  0  0
   -1.5684    0.0643    1.1069 C   0  0  0  0  0  0  0  0  0  0  0  0
   -0.4650    0.3420    0.1888 N   0  0  0  0  0  0  0  0  0  0  0  0
    0.8381    0.0261    0.5318 C   0  0  0  0  0  0  0  0  0  0  0  0
    1.1403   -0.4400    1.6213 O   0  0  0  0  0  0  0  0  0  0  0  0
    1.6924    0.3307   -0.5060 N   0  0  0  0  0  0  0  0  0  0  0  0
    3.0758    0.0759   -0.5836 C   0  0  0  0  0  0  0  0  0  0  0  0
    3.7762   -0.6994    0.3422 C   0  0  0  0  0  0  0  0  0  0  0  0
    5.1496   -0.9162    0.1900 C   0  0  0  0  0  0  0  0  0  0  0  0
    5.8323   -0.3634   -0.8909 C   0  0  0  0  0  0  0  0  0  0  0  0
    5.1419    0.4060   -1.8233 C   0  0  0  0  0  0  0  0  0  0  0  0
    3.7697    0.6227   -1.6711 C   0  0  0  0  0  0  0  0  0  0  0  0
   -1.7954    2.6995   -0.0321 H   0  0  0  0  0  0  0  0  0  0  0  0
   -3.3707    3.0385    0.6953 H   0  0  0  0  0  0  0  0  0  0  0  0
   -1.9719    2.7283    1.7329 H   0  0  0  0  0  0  0  0  0  0  0  0
   -3.5234    0.7855    1.6170 H   0  0  0  0  0  0  0  0  0  0  0  0
   -2.8436    0.7642   -1.3644 H   0  0  0  0  0  0  0  0  0  0  0  0
   -4.4056    1.1292   -0.6446 H   0  0  0  0  0  0  0  0  0  0  0  0
   -4.6278   -1.1343    0.2310 H   0  0  0  0  0  0  0  0  0  0  0  0
   -4.2748   -1.2130   -1.4923 H   0  0  0  0  0  0  0  0  0  0  0  0
   -2.9597   -2.8735   -0.1625 H   0  0  0  0  0  0  0  0  0  0  0  0
   -1.9302   -1.7636   -1.0581 H   0  0  0  0  0  0  0  0  0  0  0  0
   -1.0664   -2.0571    1.2253 H   0  0  0  0  0  0  0  0  0  0  0  0
   -2.6285   -1.6340    1.9146 H   0  0  0  0  0  0  0  0  0  0  0  0
   -1.2131    0.3024    2.1180 H   0  0  0  0  0  0  0  0  0  0  0  0
   -0.6709    0.2629   -0.7952 H   0  0  0  0  0  0  0  0  0  0  0  0
    1.3055    0.9323   -1.2163 H   0  0  0  0  0  0  0  0  0  0  0  0
    3.2802   -1.1543    1.1942 H   0  0  0  0  0  0  0  0  0  0  0  0
    5.6823   -1.5198    0.9205 H   0  0  0  0  0  0  0  0  0  0  0  0
    6.8995   -0.5337   -1.0050 H   0  0  0  0  0  0  0  0  0  0  0  0
    5.6705    0.8383   -2.6687 H   0  0  0  0  0  0  0  0  0  0  0  0
    3.2547    1.2269   -2.4128 H   0  0  0  0  0  0  0  0  0  0  0  0
  1  2  1  0
  2  3  1  0
  3  4  1  0
  4  5  1  0
  5  6  1  0
  6  7  1  0
  7  8  1  0
  8  9  1  0
  9 10  2  0
  9 11  1  0
 11 12  1  0
 12 13  2  0
 13 14  1  0
 14 15  2  0
 15 16  1  0
 16 17  2  0
  7  2  1  0
 17 12  1  0
  1 18  1  0
  1 19  1  0
  1 20  1  0
  2 21  1  0
  3 22  1  0
  3 23  1  0
  4 24  1  0
  4 25  1  0
  5 26  1  0
  5 27  1  0
  6 28  1  0
  6 29  1  0
  7 30  1  0
  8 31  1  0
 11 32  1  0
 13 33  1  0
 14 34  1  0
 15 35  1  0
 16 36  1  0
 17 37  1  0
M  END
>  <Energy>  (1) 
-55.81664892059155

>  <Real charge>  (1) 
0

>  <Mult>  (1) 
1

$$$$
mol_522 336
     RDKit          3D

 37 38  0  0  0  0  0  0  0  0999 V2000
   -2.3741    2.1340   -1.2562 C   0  0  0  0  0  0  0  0  0  0  0  0
   -2.6754    0.7264   -0.7310 C   0  0  0  0  0  0  0  0  0  0  0  0
   -4.0191    0.7323    0.0151 C   0  0  0  0  0  0  0  0  0  0  0  0
   -4.3533   -0.6348    0.6022 C   0  0  0  0  0  0  0  0  0  0  0  0
   -3.2374   -1.1378    1.5088 C   0  0  0  0  0  0  0  0  0  0  0  0
   -1.8989   -1.1668    0.7797 C   0  0  0  0  0  0  0  0  0  0  0  0
   -1.5399    0.2015    0.1768 C   0  0  0  0  0  0  0  0  0  0  0  0
   -0.2878    0.1048   -0.5702 N   0  0  0  0  0  0  0  0  0  0  0  0
    0.9302    0.1049    0.0867 C   0  0  0  0  0  0  0  0  0  0  0  0
    1.0275    0.2426    1.2980 O   0  0  0  0  0  0  0  0  0  0  0  0
    1.9603   -0.0480   -0.8161 N   0  0  0  0  0  0  0  0  0  0  0  0
    3.3345   -0.1850   -0.5376 C   0  0  0  0  0  0  0  0  0  0  0  0
    3.8536   -0.3582    0.7467 C   0  0  0  0  0  0  0  0  0  0  0  0
    5.2316   -0.4983    0.9410 C   0  0  0  0  0  0  0  0  0  0  0  0
    6.1007   -0.4708   -0.1470 C   0  0  0  0  0  0  0  0  0  0  0  0
    5.5927   -0.3050   -1.4325 C   0  0  0  0  0  0  0  0  0  0  0  0
    4.2159   -0.1648   -1.6266 C   0  0  0  0  0  0  0  0  0  0  0  0
   -1.4668    2.1444   -1.8687 H   0  0  0  0  0  0  0  0  0  0  0  0
   -3.1960    2.4978   -1.8822 H   0  0  0  0  0  0  0  0  0  0  0  0
   -2.2364    2.8435   -0.4332 H   0  0  0  0  0  0  0  0  0  0  0  0
   -2.7683    0.0611   -1.6008 H   0  0  0  0  0  0  0  0  0  0  0  0
   -3.9924    1.4744    0.8235 H   0  0  0  0  0  0  0  0  0  0  0  0
   -4.8226    1.0362   -0.6666 H   0  0  0  0  0  0  0  0  0  0  0  0
   -5.2891   -0.5735    1.1690 H   0  0  0  0  0  0  0  0  0  0  0  0
   -4.5181   -1.3524   -0.2108 H   0  0  0  0  0  0  0  0  0  0  0  0
   -3.1598   -0.4901    2.3906 H   0  0  0  0  0  0  0  0  0  0  0  0
   -3.4816   -2.1429    1.8708 H   0  0  0  0  0  0  0  0  0  0  0  0
   -1.9356   -1.9228   -0.0159 H   0  0  0  0  0  0  0  0  0  0  0  0
   -1.1172   -1.4929    1.4761 H   0  0  0  0  0  0  0  0  0  0  0  0
   -1.3851    0.9123    0.9998 H   0  0  0  0  0  0  0  0  0  0  0  0
   -0.3164   -0.4540   -1.4097 H   0  0  0  0  0  0  0  0  0  0  0  0
    1.7098    0.1042   -1.7806 H   0  0  0  0  0  0  0  0  0  0  0  0
    3.2100   -0.3927    1.6204 H   0  0  0  0  0  0  0  0  0  0  0  0
    5.6216   -0.6296    1.9473 H   0  0  0  0  0  0  0  0  0  0  0  0
    7.1707   -0.5793    0.0085 H   0  0  0  0  0  0  0  0  0  0  0  0
    6.2671   -0.2840   -2.2844 H   0  0  0  0  0  0  0  0  0  0  0  0
    3.8453   -0.0367   -2.6399 H   0  0  0  0  0  0  0  0  0  0  0  0
  1  2  1  0
  2  3  1  0
  3  4  1  0
  4  5  1  0
  5  6  1  0
  6  7  1  0
  7  8  1  0
  8  9  1  0
  9 10  2  0
  9 11  1  0
 11 12  1  0
 12 13  2  0
 13 14  1  0
 14 15  2  0
 15 16  1  0
 16 17  2  0
  7  2  1  0
 17 12  1  0
  1 18  1  0
  1 19  1  0
  1 20  1  0
  2 21  1  0
  3 22  1  0
  3 23  1  0
  4 24  1  0
  4 25  1  0
  5 26  1  0
  5 27  1  0
  6 28  1  0
  6 29  1  0
  7 30  1  0
  8 31  1  0
 11 32  1  0
 13 33  1  0
 14 34  1  0
 15 35  1  0
 16 36  1  0
 17 37  1  0
M  END
>  <Energy>  (2) 
-55.25918110120399

>  <Real charge>  (2) 
0

>  <Mult>  (2) 
1

$$$$
