mol_240 18
     RDKit          3D

 13 13  0  0  0  0  0  0  0  0999 V2000
   -2.5059    0.3958    0.1082 O   0  0  0  0  0  0  0  0  0  0  0  0
   -1.1589    0.1952    0.0542 C   0  0  0  0  0  0  0  0  0  0  0  0
   -0.3332    1.2511    0.4274 C   0  0  0  0  0  0  0  0  0  0  0  0
    1.0527    1.0920    0.3882 C   0  0  0  0  0  0  0  0  0  0  0  0
    1.5959   -0.1241   -0.0248 C   0  0  0  0  0  0  0  0  0  0  0  0
    3.3042   -0.3243   -0.0745 Cl  0  0  0  0  0  0  0  0  0  0  0  0
    0.7643   -1.1808   -0.3984 C   0  0  0  0  0  0  0  0  0  0  0  0
   -0.6230   -1.0217   -0.3591 C   0  0  0  0  0  0  0  0  0  0  0  0
   -2.9558   -0.4165   -0.1769 H   0  0  0  0  0  0  0  0  0  0  0  0
   -0.7675    2.1942    0.7476 H   0  0  0  0  0  0  0  0  0  0  0  0
    1.6985    1.9156    0.6794 H   0  0  0  0  0  0  0  0  0  0  0  0
    1.1905   -2.1274   -0.7198 H   0  0  0  0  0  0  0  0  0  0  0  0
   -1.2617   -1.8492   -0.6515 H   0  0  0  0  0  0  0  0  0  0  0  0
  1  2  1  0
  2  3  2  0
  3  4  1  0
  4  5  2  0
  5  6  1  0
  5  7  1  0
  7  8  2  0
  8  2  1  0
  1  9  1  0
  3 10  1  0
  4 11  1  0
  7 12  1  0
  8 13  1  0
M  END
>  <Energy>  (1) 
3.3549240895770542

>  <Real charge>  (1) 
0

>  <Mult>  (1) 
1

$$$$
