mol_846 1
     RDKit          3D

 29 32  0  0  0  0  0  0  0  0999 V2000
    1.5132   -1.8232    0.0254 C   0  0  0  0  0  0  0  0  0  0  0  0
    2.4920   -0.6856   -0.1821 C   0  0  0  0  0  0  0  0  0  0  0  0
    3.8738   -0.7468   -0.2508 C   0  0  0  0  0  0  0  0  0  0  0  0
    4.5726    0.4454   -0.4500 C   0  0  0  0  0  0  0  0  0  0  0  0
    3.8894    1.6672   -0.5762 C   0  0  0  0  0  0  0  0  0  0  0  0
    2.4933    1.7200   -0.5056 C   0  0  0  0  0  0  0  0  0  0  0  0
    1.7991    0.5383   -0.3080 C   0  0  0  0  0  0  0  0  0  0  0  0
    0.3786    0.2815   -0.1944 C   0  0  0  0  0  0  0  0  0  0  0  0
   -0.7043    1.1433   -0.2500 C   0  0  0  0  0  0  0  0  0  0  0  0
   -2.0033    0.6217   -0.1076 C   0  0  0  0  0  0  0  0  0  0  0  0
   -3.1252    1.4633   -0.1583 C   0  0  0  0  0  0  0  0  0  0  0  0
   -4.4143    0.9464   -0.0171 C   0  0  0  0  0  0  0  0  0  0  0  0
   -4.6007   -0.4191    0.1768 C   0  0  0  0  0  0  0  0  0  0  0  0
   -3.4991   -1.2748    0.2306 C   0  0  0  0  0  0  0  0  0  0  0  0
   -2.1948   -0.7765    0.0910 C   0  0  0  0  0  0  0  0  0  0  0  0
   -1.0863   -1.6374    0.1451 C   0  0  0  0  0  0  0  0  0  0  0  0
    0.1823   -1.0993    0.0022 C   0  0  0  0  0  0  0  0  0  0  0  0
    1.6763   -2.3020    0.9953 H   0  0  0  0  0  0  0  0  0  0  0  0
    1.5766   -2.5429   -0.7959 H   0  0  0  0  0  0  0  0  0  0  0  0
    4.4014   -1.6896   -0.1534 H   0  0  0  0  0  0  0  0  0  0  0  0
    5.6585    0.4306   -0.5085 H   0  0  0  0  0  0  0  0  0  0  0  0
    4.4546    2.5834   -0.7309 H   0  0  0  0  0  0  0  0  0  0  0  0
    1.9762    2.6681   -0.6042 H   0  0  0  0  0  0  0  0  0  0  0  0
   -0.5484    2.2066   -0.4017 H   0  0  0  0  0  0  0  0  0  0  0  0
   -3.0034    2.5336   -0.3090 H   0  0  0  0  0  0  0  0  0  0  0  0
   -5.2726    1.6119   -0.0589 H   0  0  0  0  0  0  0  0  0  0  0  0
   -5.6048   -0.8205    0.2866 H   0  0  0  0  0  0  0  0  0  0  0  0
   -3.6685   -2.3384    0.3830 H   0  0  0  0  0  0  0  0  0  0  0  0
   -1.2120   -2.7052    0.2957 H   0  0  0  0  0  0  0  0  0  0  0  0
  1  2  1  0
  2  3  2  0
  3  4  1  0
  4  5  2  0
  5  6  1  0
  6  7  2  0
  7  8  1  0
  8  9  2  0
  9 10  1  0
 10 11  2  0
 11 12  1  0
 12 13  2  0
 13 14  1  0
 14 15  2  0
 15 16  1  0
 16 17  2  0
 17  1  1  0
  7  2  1  0
 17  8  1  0
 15 10  1  0
  1 18  1  0
  1 19  1  0
  3 20  1  0
  4 21  1  0
  5 22  1  0
  6 23  1  0
  9 24  1  0
 11 25  1  0
 12 26  1  0
 13 27  1  0
 14 28  1  0
 16 29  1  0
M  END
>  <Energy>  (1) 
64.8772385498718

>  <Real charge>  (1) 
0

>  <Mult>  (1) 
1

$$$$
