mol_875 46
     RDKit          3D

 29 30  0  0  0  0  0  0  0  0999 V2000
    4.5996    0.9569   -0.2030 O   0  0  0  0  0  0  0  0  0  0  0  0
    3.3978    0.7272   -0.1177 C   0  0  0  0  0  0  0  0  0  0  0  0
    2.5725    0.8636   -1.1892 N   0  0  0  0  0  0  0  0  0  0  0  0
    1.4366    0.1156   -1.3374 C   0  0  0  0  0  0  0  0  0  0  0  0
    1.0677   -0.2281   -2.4570 O   0  0  0  0  0  0  0  0  0  0  0  0
    0.6794   -0.1934   -0.0446 C   0  0  0  0  0  0  0  0  0  0  0  0
   -0.0540    1.1091    0.3694 C   0  0  0  0  0  0  0  0  0  0  0  0
   -1.2138    0.9279    1.3512 C   0  0  0  0  0  0  0  0  0  0  0  0
   -2.5458    0.6566    0.6569 C   0  0  0  0  0  0  0  0  0  0  0  0
   -2.6852   -0.7348    0.0526 C   0  0  0  0  0  0  0  0  0  0  0  0
   -1.5903   -1.1170   -0.9403 C   0  0  0  0  0  0  0  0  0  0  0  0
   -0.2492   -1.4115   -0.2626 C   0  0  0  0  0  0  0  0  0  0  0  0
    1.7052   -0.5203    1.0429 C   0  0  0  0  0  0  0  0  0  0  0  0
    1.5405   -1.3607    1.9230 O   0  0  0  0  0  0  0  0  0  0  0  0
    2.8501    0.2303    1.0235 N   0  0  0  0  0  0  0  0  0  0  0  0
    3.0614    1.0584   -2.0536 H   0  0  0  0  0  0  0  0  0  0  0  0
   -0.4133    1.6428   -0.5211 H   0  0  0  0  0  0  0  0  0  0  0  0
    0.6618    1.7984    0.8383 H   0  0  0  0  0  0  0  0  0  0  0  0
   -1.3263    1.8676    1.9075 H   0  0  0  0  0  0  0  0  0  0  0  0
   -0.9935    0.1553    2.0961 H   0  0  0  0  0  0  0  0  0  0  0  0
   -3.3514    0.7884    1.3902 H   0  0  0  0  0  0  0  0  0  0  0  0
   -2.7176    1.4110   -0.1210 H   0  0  0  0  0  0  0  0  0  0  0  0
   -3.6525   -0.7840   -0.4630 H   0  0  0  0  0  0  0  0  0  0  0  0
   -2.7323   -1.4792    0.8571 H   0  0  0  0  0  0  0  0  0  0  0  0
   -1.4932   -0.3571   -1.7229 H   0  0  0  0  0  0  0  0  0  0  0  0
   -1.9160   -2.0369   -1.4430 H   0  0  0  0  0  0  0  0  0  0  0  0
   -0.4480   -1.9307    0.6833 H   0  0  0  0  0  0  0  0  0  0  0  0
    0.2852   -2.1501   -0.8769 H   0  0  0  0  0  0  0  0  0  0  0  0
    3.5247   -0.0052    1.7398 H   0  0  0  0  0  0  0  0  0  0  0  0
  1  2  2  0
  2  3  1  0
  3  4  1  0
  4  5  2  0
  4  6  1  0
  6  7  1  0
  7  8  1  0
  8  9  1  0
  9 10  1  0
 10 11  1  0
 11 12  1  0
  6 13  1  0
 13 14  2  0
 13 15  1  0
 12  6  1  0
 15  2  1  0
  3 16  1  0
  7 17  1  0
  7 18  1  0
  8 19  1  0
  8 20  1  0
  9 21  1  0
  9 22  1  0
 10 23  1  0
 10 24  1  0
 11 25  1  0
 11 26  1  0
 12 27  1  0
 12 28  1  0
 15 29  1  0
M  END
>  <Energy>  (1) 
-119.45461469768411

>  <Real charge>  (1) 
0

>  <Mult>  (1) 
1

$$$$
