mol_693 27
     RDKit          3D

 13 13  0  0  0  0  0  0  0  0999 V2000
   -2.5367   -0.0749   -0.2124 O   0  0  0  0  0  0  0  0  0  0  0  0
   -1.1727   -0.0797   -0.0977 C   0  0  0  0  0  0  0  0  0  0  0  0
   -0.5549   -1.3229   -0.0320 C   0  0  0  0  0  0  0  0  0  0  0  0
    0.8313   -1.3938    0.0853 C   0  0  0  0  0  0  0  0  0  0  0  0
    1.5947   -0.2212    0.1365 C   0  0  0  0  0  0  0  0  0  0  0  0
    3.3093   -0.4056    0.2826 Cl  0  0  0  0  0  0  0  0  0  0  0  0
    0.9737    1.0374    0.0704 C   0  0  0  0  0  0  0  0  0  0  0  0
    1.9216    2.4909    0.1340 Cl  0  0  0  0  0  0  0  0  0  0  0  0
   -0.4230    1.1030   -0.0477 C   0  0  0  0  0  0  0  0  0  0  0  0
   -1.2763    2.6105   -0.1361 Cl  0  0  0  0  0  0  0  0  0  0  0  0
   -2.8294    0.8560   -0.2472 H   0  0  0  0  0  0  0  0  0  0  0  0
   -1.1508   -2.2316   -0.0721 H   0  0  0  0  0  0  0  0  0  0  0  0
    1.3133   -2.3681    0.1365 H   0  0  0  0  0  0  0  0  0  0  0  0
  1  2  1  0
  2  3  2  0
  3  4  1  0
  4  5  2  0
  5  6  1  0
  5  7  1  0
  7  8  1  0
  7  9  2  0
  9 10  1  0
  9  2  1  0
  1 11  1  0
  3 12  1  0
  4 13  1  0
M  END
>  <Energy>  (1) 
28.197955168583103

>  <Real charge>  (1) 
0

>  <Mult>  (1) 
1

$$$$
