mol_19 243
     RDKit          3D

 40 40  0  0  0  0  0  0  0  0999 V2000
   -4.0160   -1.0679   -3.4418 C   0  0  0  0  0  0  0  0  0  0  0  0
   -3.4025   -0.0802   -2.4706 C   0  0  0  0  0  0  0  0  0  0  0  0
   -2.8453   -0.8029   -1.3853 O   0  0  0  0  0  0  0  0  0  0  0  0
   -1.7826   -0.0476   -0.4121 P   0  0  0  0  0  5  0  0  0  0  0  0
   -2.5049    1.5166    0.4919 S   0  0  0  0  0  0  0  0  0  0  0  0
   -1.3073   -1.3034    0.4951 O   0  0  0  0  0  0  0  0  0  0  0  0
   -2.2239   -1.8528    1.4238 C   0  0  0  0  0  0  0  0  0  0  0  0
   -1.6546   -3.1555    1.9474 C   0  0  0  0  0  0  0  0  0  0  0  0
   -0.5470    0.1516   -1.4336 O   0  0  0  0  0  0  0  0  0  0  0  0
    0.6966    0.5145   -0.9907 C   0  0  0  0  0  0  0  0  0  0  0  0
    1.6823    0.6679   -1.9341 C   0  0  0  0  0  0  0  0  0  0  0  0
    2.9226    1.0253   -1.4522 C   0  0  0  0  0  0  0  0  0  0  0  0
    4.0733    1.2207   -2.3921 C   0  0  0  0  0  0  0  0  0  0  0  0
    3.1568    1.2115   -0.1371 N   0  0  0  0  0  0  0  0  0  0  0  0
    2.1218    1.0351    0.7069 C   0  0  0  0  0  0  0  0  0  0  0  0
    0.8816    0.6902    0.3211 N   0  0  0  0  0  0  0  0  0  0  0  0
    2.3784    1.2472    2.1817 C   0  0  0  0  0  0  0  0  0  0  0  0
    1.6033    2.4594    2.6956 C   0  0  0  0  0  0  0  0  0  0  0  0
    2.0326   -0.0072    2.9841 C   0  0  0  0  0  0  0  0  0  0  0  0
   -4.4655   -0.5500   -4.2936 H   0  0  0  0  0  0  0  0  0  0  0  0
   -3.2574   -1.7654   -3.8124 H   0  0  0  0  0  0  0  0  0  0  0  0
   -4.7861   -1.6686   -2.9467 H   0  0  0  0  0  0  0  0  0  0  0  0
   -2.6281    0.5063   -2.9747 H   0  0  0  0  0  0  0  0  0  0  0  0
   -4.1734    0.5984   -2.0939 H   0  0  0  0  0  0  0  0  0  0  0  0
   -2.3665   -1.1520    2.2516 H   0  0  0  0  0  0  0  0  0  0  0  0
   -3.1884   -2.0336    0.9391 H   0  0  0  0  0  0  0  0  0  0  0  0
   -1.4892   -3.8612    1.1267 H   0  0  0  0  0  0  0  0  0  0  0  0
   -0.6830   -2.9876    2.4239 H   0  0  0  0  0  0  0  0  0  0  0  0
   -2.3307   -3.6125    2.6754 H   0  0  0  0  0  0  0  0  0  0  0  0
    1.4921    0.5147   -2.9870 H   0  0  0  0  0  0  0  0  0  0  0  0
    4.9793    1.5027   -1.8460 H   0  0  0  0  0  0  0  0  0  0  0  0
    3.8460    2.0163   -3.1084 H   0  0  0  0  0  0  0  0  0  0  0  0
    4.2787    0.2939   -2.9367 H   0  0  0  0  0  0  0  0  0  0  0  0
    3.4488    1.4481    2.3187 H   0  0  0  0  0  0  0  0  0  0  0  0
    1.8617    3.3597    2.1269 H   0  0  0  0  0  0  0  0  0  0  0  0
    0.5205    2.3133    2.6121 H   0  0  0  0  0  0  0  0  0  0  0  0
    1.8357    2.6489    3.7489 H   0  0  0  0  0  0  0  0  0  0  0  0
    0.9660   -0.2509    2.9185 H   0  0  0  0  0  0  0  0  0  0  0  0
    2.5943   -0.8736    2.6174 H   0  0  0  0  0  0  0  0  0  0  0  0
    2.2799    0.1306    4.0421 H   0  0  0  0  0  0  0  0  0  0  0  0
  1  2  1  0
  2  3  1  0
  3  4  1  0
  4  5  2  0
  4  6  1  0
  6  7  1  0
  7  8  1  0
  4  9  1  0
  9 10  1  0
 10 11  2  0
 11 12  1  0
 12 13  1  0
 12 14  2  0
 14 15  1  0
 15 16  2  0
 15 17  1  0
 17 18  1  0
 17 19  1  0
 16 10  1  0
  1 20  1  0
  1 21  1  0
  1 22  1  0
  2 23  1  0
  2 24  1  0
  7 25  1  0
  7 26  1  0
  8 27  1  0
  8 28  1  0
  8 29  1  0
 11 30  1  0
 13 31  1  0
 13 32  1  0
 13 33  1  0
 17 34  1  0
 18 35  1  0
 18 36  1  0
 18 37  1  0
 19 38  1  0
 19 39  1  0
 19 40  1  0
M  END
>  <Energy>  (1) 
-102.03336880873374

>  <Real charge>  (1) 
0

>  <Mult>  (1) 
1

$$$$
mol_19 428
     RDKit          3D

 40 40  0  0  0  0  0  0  0  0999 V2000
    1.8971    3.3784    1.8115 C   0  0  0  0  0  0  0  0  0  0  0  0
    2.2732    2.5624    0.5917 C   0  0  0  0  0  0  0  0  0  0  0  0
    1.5698    1.3341    0.6377 O   0  0  0  0  0  0  0  0  0  0  0  0
    2.0156    0.1495   -0.3743 P   0  0  0  0  0  5  0  0  0  0  0  0
    2.0945    0.5505   -2.2766 S   0  0  0  0  0  0  0  0  0  0  0  0
    3.4522   -0.2413    0.2823 O   0  0  0  0  0  0  0  0  0  0  0  0
    4.1395   -1.3761   -0.2181 C   0  0  0  0  0  0  0  0  0  0  0  0
    5.2048   -1.7735    0.7831 C   0  0  0  0  0  0  0  0  0  0  0  0
    1.1241   -1.1035    0.1190 O   0  0  0  0  0  0  0  0  0  0  0  0
   -0.2411   -1.1001    0.0144 C   0  0  0  0  0  0  0  0  0  0  0  0
   -0.9081   -2.2164    0.4560 C   0  0  0  0  0  0  0  0  0  0  0  0
   -2.2798   -2.1817    0.3361 C   0  0  0  0  0  0  0  0  0  0  0  0
   -3.1105   -3.3448    0.7863 C   0  0  0  0  0  0  0  0  0  0  0  0
   -2.9286   -1.1199   -0.1831 N   0  0  0  0  0  0  0  0  0  0  0  0
   -2.1811   -0.0740   -0.5885 C   0  0  0  0  0  0  0  0  0  0  0  0
   -0.8412   -0.0241   -0.5040 N   0  0  0  0  0  0  0  0  0  0  0  0
   -2.8837    1.1274   -1.1791 C   0  0  0  0  0  0  0  0  0  0  0  0
   -3.8195    1.7687   -0.1556 C   0  0  0  0  0  0  0  0  0  0  0  0
   -3.6365    0.7464   -2.4530 C   0  0  0  0  0  0  0  0  0  0  0  0
    0.8171    3.5576    1.8378 H   0  0  0  0  0  0  0  0  0  0  0  0
    2.1527    2.8390    2.7296 H   0  0  0  0  0  0  0  0  0  0  0  0
    2.4150    4.3415    1.8119 H   0  0  0  0  0  0  0  0  0  0  0  0
    3.3523    2.3800    0.5825 H   0  0  0  0  0  0  0  0  0  0  0  0
    1.9958    3.1043   -0.3173 H   0  0  0  0  0  0  0  0  0  0  0  0
    3.4429   -2.2063   -0.3705 H   0  0  0  0  0  0  0  0  0  0  0  0
    4.6050   -1.1226   -1.1751 H   0  0  0  0  0  0  0  0  0  0  0  0
    5.7660   -2.6437    0.4315 H   0  0  0  0  0  0  0  0  0  0  0  0
    5.9031   -0.9471    0.9523 H   0  0  0  0  0  0  0  0  0  0  0  0
    4.7530   -2.0120    1.7517 H   0  0  0  0  0  0  0  0  0  0  0  0
   -0.3843   -3.0659    0.8713 H   0  0  0  0  0  0  0  0  0  0  0  0
   -4.1752   -3.1508    0.6207 H   0  0  0  0  0  0  0  0  0  0  0  0
   -2.9596   -3.5265    1.8549 H   0  0  0  0  0  0  0  0  0  0  0  0
   -2.8371   -4.2444    0.2261 H   0  0  0  0  0  0  0  0  0  0  0  0
   -2.1228    1.8712   -1.4495 H   0  0  0  0  0  0  0  0  0  0  0  0
   -4.2805    2.6732   -0.5666 H   0  0  0  0  0  0  0  0  0  0  0  0
   -3.2728    2.0521    0.7508 H   0  0  0  0  0  0  0  0  0  0  0  0
   -4.6245    1.0871    0.1413 H   0  0  0  0  0  0  0  0  0  0  0  0
   -2.9591    0.2988   -3.1889 H   0  0  0  0  0  0  0  0  0  0  0  0
   -4.0937    1.6301   -2.9109 H   0  0  0  0  0  0  0  0  0  0  0  0
   -4.4341    0.0223   -2.2519 H   0  0  0  0  0  0  0  0  0  0  0  0
  1  2  1  0
  2  3  1  0
  3  4  1  0
  4  5  2  0
  4  6  1  0
  6  7  1  0
  7  8  1  0
  4  9  1  0
  9 10  1  0
 10 11  2  0
 11 12  1  0
 12 13  1  0
 12 14  2  0
 14 15  1  0
 15 16  2  0
 15 17  1  0
 17 18  1  0
 17 19  1  0
 16 10  1  0
  1 20  1  0
  1 21  1  0
  1 22  1  0
  2 23  1  0
  2 24  1  0
  7 25  1  0
  7 26  1  0
  8 27  1  0
  8 28  1  0
  8 29  1  0
 11 30  1  0
 13 31  1  0
 13 32  1  0
 13 33  1  0
 17 34  1  0
 18 35  1  0
 18 36  1  0
 18 37  1  0
 19 38  1  0
 19 39  1  0
 19 40  1  0
M  END
>  <Energy>  (2) 
-101.64054332790549

>  <Real charge>  (2) 
0

>  <Mult>  (2) 
1

$$$$
mol_19 464
     RDKit          3D

 40 40  0  0  0  0  0  0  0  0999 V2000
    2.3062    0.7727   -2.3026 C   0  0  0  0  0  0  0  0  0  0  0  0
    1.9443    0.0077   -1.0461 C   0  0  0  0  0  0  0  0  0  0  0  0
    1.5436    0.9375   -0.0558 O   0  0  0  0  0  0  0  0  0  0  0  0
    1.3995    0.4578    1.4852 P   0  0  0  0  0  5  0  0  0  0  0  0
    0.7320    1.7719    2.7518 S   0  0  0  0  0  0  0  0  0  0  0  0
    2.9173   -0.0416    1.7929 O   0  0  0  0  0  0  0  0  0  0  0  0
    3.9509    0.9295    1.8444 C   0  0  0  0  0  0  0  0  0  0  0  0
    5.2773    0.2318    1.6227 C   0  0  0  0  0  0  0  0  0  0  0  0
    0.6487   -0.9712    1.4194 O   0  0  0  0  0  0  0  0  0  0  0  0
   -0.6634   -1.0747    1.0448 C   0  0  0  0  0  0  0  0  0  0  0  0
   -1.3114   -2.2529    1.3205 C   0  0  0  0  0  0  0  0  0  0  0  0
   -2.6199   -2.3289    0.8967 C   0  0  0  0  0  0  0  0  0  0  0  0
   -3.4283   -3.5650    1.1504 C   0  0  0  0  0  0  0  0  0  0  0  0
   -3.2244   -1.3146    0.2443 N   0  0  0  0  0  0  0  0  0  0  0  0
   -2.4987   -0.2025    0.0193 C   0  0  0  0  0  0  0  0  0  0  0  0
   -1.2170   -0.0480    0.3929 N   0  0  0  0  0  0  0  0  0  0  0  0
   -3.1732    0.9381   -0.7084 C   0  0  0  0  0  0  0  0  0  0  0  0
   -3.2558    2.1769    0.1824 C   0  0  0  0  0  0  0  0  0  0  0  0
   -2.4503    1.2501   -2.0185 C   0  0  0  0  0  0  0  0  0  0  0  0
    1.4528    1.3618   -2.6546 H   0  0  0  0  0  0  0  0  0  0  0  0
    2.6170    0.0908   -3.0990 H   0  0  0  0  0  0  0  0  0  0  0  0
    3.1200    1.4778   -2.1031 H   0  0  0  0  0  0  0  0  0  0  0  0
    1.1209   -0.6801   -1.2573 H   0  0  0  0  0  0  0  0  0  0  0  0
    2.8065   -0.5702   -0.7012 H   0  0  0  0  0  0  0  0  0  0  0  0
    3.7990    1.6926    1.0747 H   0  0  0  0  0  0  0  0  0  0  0  0
    3.9420    1.4093    2.8276 H   0  0  0  0  0  0  0  0  0  0  0  0
    5.2909   -0.2685    0.6486 H   0  0  0  0  0  0  0  0  0  0  0  0
    5.4380   -0.5421    2.3805 H   0  0  0  0  0  0  0  0  0  0  0  0
    6.1053    0.9448    1.6648 H   0  0  0  0  0  0  0  0  0  0  0  0
   -0.8221   -3.0644    1.8408 H   0  0  0  0  0  0  0  0  0  0  0  0
   -2.9619   -4.4283    0.6656 H   0  0  0  0  0  0  0  0  0  0  0  0
   -4.4421   -3.4567    0.7514 H   0  0  0  0  0  0  0  0  0  0  0  0
   -3.5040   -3.7535    2.2259 H   0  0  0  0  0  0  0  0  0  0  0  0
   -4.1979    0.6312   -0.9544 H   0  0  0  0  0  0  0  0  0  0  0  0
   -2.2613    2.5567    0.4424 H   0  0  0  0  0  0  0  0  0  0  0  0
   -3.7808    1.9526    1.1177 H   0  0  0  0  0  0  0  0  0  0  0  0
   -3.7998    2.9815   -0.3239 H   0  0  0  0  0  0  0  0  0  0  0  0
   -2.4006    0.3626   -2.6592 H   0  0  0  0  0  0  0  0  0  0  0  0
   -1.4235    1.5918   -1.8446 H   0  0  0  0  0  0  0  0  0  0  0  0
   -2.9756    2.0356   -2.5723 H   0  0  0  0  0  0  0  0  0  0  0  0
  1  2  1  0
  2  3  1  0
  3  4  1  0
  4  5  2  0
  4  6  1  0
  6  7  1  0
  7  8  1  0
  4  9  1  0
  9 10  1  0
 10 11  2  0
 11 12  1  0
 12 13  1  0
 12 14  2  0
 14 15  1  0
 15 16  2  0
 15 17  1  0
 17 18  1  0
 17 19  1  0
 16 10  1  0
  1 20  1  0
  1 21  1  0
  1 22  1  0
  2 23  1  0
  2 24  1  0
  7 25  1  0
  7 26  1  0
  8 27  1  0
  8 28  1  0
  8 29  1  0
 11 30  1  0
 13 31  1  0
 13 32  1  0
 13 33  1  0
 17 34  1  0
 18 35  1  0
 18 36  1  0
 18 37  1  0
 19 38  1  0
 19 39  1  0
 19 40  1  0
M  END
>  <Energy>  (3) 
-101.58213308253407

>  <Real charge>  (3) 
0

>  <Mult>  (3) 
1

$$$$
mol_19 263
     RDKit          3D

 40 40  0  0  0  0  0  0  0  0999 V2000
   -2.6800    0.7182    2.6511 C   0  0  0  0  0  0  0  0  0  0  0  0
   -2.5792    1.1639    1.2069 C   0  0  0  0  0  0  0  0  0  0  0  0
   -1.6675    0.3112    0.5371 O   0  0  0  0  0  0  0  0  0  0  0  0
   -1.6344    0.3367   -1.0832 P   0  0  0  0  0  5  0  0  0  0  0  0
   -1.5150    2.0563   -1.9788 S   0  0  0  0  0  0  0  0  0  0  0  0
   -3.0190   -0.4455   -1.4245 O   0  0  0  0  0  0  0  0  0  0  0  0
   -3.1968   -1.7719   -0.9575 C   0  0  0  0  0  0  0  0  0  0  0  0
   -4.6619   -2.1349   -1.0861 C   0  0  0  0  0  0  0  0  0  0  0  0
   -0.5419   -0.7903   -1.4657 O   0  0  0  0  0  0  0  0  0  0  0  0
    0.7775   -0.6469   -1.1293 C   0  0  0  0  0  0  0  0  0  0  0  0
    1.6575   -1.5849   -1.6097 C   0  0  0  0  0  0  0  0  0  0  0  0
    2.9734   -1.4173   -1.2378 C   0  0  0  0  0  0  0  0  0  0  0  0
    4.0223   -2.3788   -1.7081 C   0  0  0  0  0  0  0  0  0  0  0  0
    3.3735   -0.3998   -0.4478 N   0  0  0  0  0  0  0  0  0  0  0  0
    2.4308    0.4662   -0.0288 C   0  0  0  0  0  0  0  0  0  0  0  0
    1.1274    0.3760   -0.3437 N   0  0  0  0  0  0  0  0  0  0  0  0
    2.8757    1.6132    0.8499 C   0  0  0  0  0  0  0  0  0  0  0  0
    2.6689    2.9501    0.1395 C   0  0  0  0  0  0  0  0  0  0  0  0
    2.1477    1.5868    2.1939 C   0  0  0  0  0  0  0  0  0  0  0  0
   -3.0285   -0.3182    2.7107 H   0  0  0  0  0  0  0  0  0  0  0  0
   -1.6980    0.7523    3.1347 H   0  0  0  0  0  0  0  0  0  0  0  0
   -3.3710    1.3559    3.2094 H   0  0  0  0  0  0  0  0  0  0  0  0
   -2.2114    2.1932    1.1604 H   0  0  0  0  0  0  0  0  0  0  0  0
   -3.5633    1.1130    0.7303 H   0  0  0  0  0  0  0  0  0  0  0  0
   -2.8838   -1.8569    0.0872 H   0  0  0  0  0  0  0  0  0  0  0  0
   -2.5895   -2.4498   -1.5650 H   0  0  0  0  0  0  0  0  0  0  0  0
   -4.8422   -3.1579   -0.7441 H   0  0  0  0  0  0  0  0  0  0  0  0
   -5.2809   -1.4507   -0.4962 H   0  0  0  0  0  0  0  0  0  0  0  0
   -4.9919   -2.0465   -2.1264 H   0  0  0  0  0  0  0  0  0  0  0  0
    1.3335   -2.3996   -2.2419 H   0  0  0  0  0  0  0  0  0  0  0  0
    5.0082   -2.0999   -1.3222 H   0  0  0  0  0  0  0  0  0  0  0  0
    3.7931   -3.3900   -1.3578 H   0  0  0  0  0  0  0  0  0  0  0  0
    4.0723   -2.3793   -2.8014 H   0  0  0  0  0  0  0  0  0  0  0  0
    3.9494    1.4986    1.0475 H   0  0  0  0  0  0  0  0  0  0  0  0
    3.0474    3.7758    0.7514 H   0  0  0  0  0  0  0  0  0  0  0  0
    3.1998    2.9708   -0.8188 H   0  0  0  0  0  0  0  0  0  0  0  0
    1.6092    3.1416   -0.0636 H   0  0  0  0  0  0  0  0  0  0  0  0
    2.3030    0.6297    2.7044 H   0  0  0  0  0  0  0  0  0  0  0  0
    1.0674    1.7278    2.0740 H   0  0  0  0  0  0  0  0  0  0  0  0
    2.5184    2.3818    2.8497 H   0  0  0  0  0  0  0  0  0  0  0  0
  1  2  1  0
  2  3  1  0
  3  4  1  0
  4  5  2  0
  4  6  1  0
  6  7  1  0
  7  8  1  0
  4  9  1  0
  9 10  1  0
 10 11  2  0
 11 12  1  0
 12 13  1  0
 12 14  2  0
 14 15  1  0
 15 16  2  0
 15 17  1  0
 17 18  1  0
 17 19  1  0
 16 10  1  0
  1 20  1  0
  1 21  1  0
  1 22  1  0
  2 23  1  0
  2 24  1  0
  7 25  1  0
  7 26  1  0
  8 27  1  0
  8 28  1  0
  8 29  1  0
 11 30  1  0
 13 31  1  0
 13 32  1  0
 13 33  1  0
 17 34  1  0
 18 35  1  0
 18 36  1  0
 18 37  1  0
 19 38  1  0
 19 39  1  0
 19 40  1  0
M  END
>  <Energy>  (4) 
-101.5757920438082

>  <Real charge>  (4) 
0

>  <Mult>  (4) 
1

$$$$
mol_19 542
     RDKit          3D

 40 40  0  0  0  0  0  0  0  0999 V2000
   -5.0718    1.9094   -0.6457 C   0  0  0  0  0  0  0  0  0  0  0  0
   -3.9134    1.6081    0.2830 C   0  0  0  0  0  0  0  0  0  0  0  0
   -3.2877    0.4119   -0.1510 O   0  0  0  0  0  0  0  0  0  0  0  0
   -1.7964    0.0705    0.4034 P   0  0  0  0  0  5  0  0  0  0  0  0
   -1.6858   -0.1134    2.3372 S   0  0  0  0  0  0  0  0  0  0  0  0
   -1.4631   -1.2300   -0.5022 O   0  0  0  0  0  0  0  0  0  0  0  0
   -2.2502   -2.3972   -0.3485 C   0  0  0  0  0  0  0  0  0  0  0  0
   -1.3366   -3.5670   -0.0463 C   0  0  0  0  0  0  0  0  0  0  0  0
   -0.9466    1.2422   -0.3129 O   0  0  0  0  0  0  0  0  0  0  0  0
    0.4219    1.2201   -0.3469 C   0  0  0  0  0  0  0  0  0  0  0  0
    1.0530    2.2737   -0.9612 C   0  0  0  0  0  0  0  0  0  0  0  0
    2.4293    2.2189   -0.9816 C   0  0  0  0  0  0  0  0  0  0  0  0
    3.2223    3.3153   -1.6255 C   0  0  0  0  0  0  0  0  0  0  0  0
    3.1160    1.1955   -0.4340 N   0  0  0  0  0  0  0  0  0  0  0  0
    2.4023    0.2104    0.1449 C   0  0  0  0  0  0  0  0  0  0  0  0
    1.0599    0.1852    0.2080 N   0  0  0  0  0  0  0  0  0  0  0  0
    3.1698   -0.9378    0.7603 C   0  0  0  0  0  0  0  0  0  0  0  0
    2.8063   -2.2599    0.0854 C   0  0  0  0  0  0  0  0  0  0  0  0
    2.9304   -1.0060    2.2679 C   0  0  0  0  0  0  0  0  0  0  0  0
   -5.5887    2.8237   -0.3412 H   0  0  0  0  0  0  0  0  0  0  0  0
   -4.7188    2.0290   -1.6754 H   0  0  0  0  0  0  0  0  0  0  0  0
   -5.7892    1.0821   -0.6491 H   0  0  0  0  0  0  0  0  0  0  0  0
   -4.2813    1.4724    1.3043 H   0  0  0  0  0  0  0  0  0  0  0  0
   -3.1993    2.4372    0.2696 H   0  0  0  0  0  0  0  0  0  0  0  0
   -2.7854   -2.5703   -1.2871 H   0  0  0  0  0  0  0  0  0  0  0  0
   -2.9944   -2.2804    0.4455 H   0  0  0  0  0  0  0  0  0  0  0  0
   -1.9087   -4.4936    0.0527 H   0  0  0  0  0  0  0  0  0  0  0  0
   -0.7817   -3.3940    0.8816 H   0  0  0  0  0  0  0  0  0  0  0  0
   -0.5946   -3.6930   -0.8417 H   0  0  0  0  0  0  0  0  0  0  0  0
    0.4995    3.0917   -1.4005 H   0  0  0  0  0  0  0  0  0  0  0  0
    4.2961    3.1148   -1.5523 H   0  0  0  0  0  0  0  0  0  0  0  0
    2.9628    3.3976   -2.6856 H   0  0  0  0  0  0  0  0  0  0  0  0
    3.0197    4.2700   -1.1302 H   0  0  0  0  0  0  0  0  0  0  0  0
    4.2409   -0.7612    0.5976 H   0  0  0  0  0  0  0  0  0  0  0  0
    2.9874   -2.2114   -0.9942 H   0  0  0  0  0  0  0  0  0  0  0  0
    1.7509   -2.5142    0.2340 H   0  0  0  0  0  0  0  0  0  0  0  0
    3.4087   -3.0796    0.4911 H   0  0  0  0  0  0  0  0  0  0  0  0
    1.8807   -1.2139    2.5029 H   0  0  0  0  0  0  0  0  0  0  0  0
    3.1980   -0.0593    2.7505 H   0  0  0  0  0  0  0  0  0  0  0  0
    3.5377   -1.7974    2.7201 H   0  0  0  0  0  0  0  0  0  0  0  0
  1  2  1  0
  2  3  1  0
  3  4  1  0
  4  5  2  0
  4  6  1  0
  6  7  1  0
  7  8  1  0
  4  9  1  0
  9 10  1  0
 10 11  2  0
 11 12  1  0
 12 13  1  0
 12 14  2  0
 14 15  1  0
 15 16  2  0
 15 17  1  0
 17 18  1  0
 17 19  1  0
 16 10  1  0
  1 20  1  0
  1 21  1  0
  1 22  1  0
  2 23  1  0
  2 24  1  0
  7 25  1  0
  7 26  1  0
  8 27  1  0
  8 28  1  0
  8 29  1  0
 11 30  1  0
 13 31  1  0
 13 32  1  0
 13 33  1  0
 17 34  1  0
 18 35  1  0
 18 36  1  0
 18 37  1  0
 19 38  1  0
 19 39  1  0
 19 40  1  0
M  END
>  <Energy>  (5) 
-101.55379058771169

>  <Real charge>  (5) 
0

>  <Mult>  (5) 
1

$$$$
mol_19 431
     RDKit          3D

 40 40  0  0  0  0  0  0  0  0999 V2000
    0.1122    1.3829    3.4129 C   0  0  0  0  0  0  0  0  0  0  0  0
    0.6641    0.6446    2.2108 C   0  0  0  0  0  0  0  0  0  0  0  0
    0.7050    1.5395    1.1136 O   0  0  0  0  0  0  0  0  0  0  0  0
    1.7325    1.2620   -0.1082 P   0  0  0  0  0  5  0  0  0  0  0  0
    1.6204    2.4556   -1.6374 S   0  0  0  0  0  0  0  0  0  0  0  0
    3.1574    1.3296    0.6749 O   0  0  0  0  0  0  0  0  0  0  0  0
    3.5828    2.5785    1.1976 C   0  0  0  0  0  0  0  0  0  0  0  0
    4.5705    2.3194    2.3167 C   0  0  0  0  0  0  0  0  0  0  0  0
    1.6456   -0.3276   -0.3812 O   0  0  0  0  0  0  0  0  0  0  0  0
    0.5294   -0.9052   -0.9230 C   0  0  0  0  0  0  0  0  0  0  0  0
    0.6460   -2.1916   -1.3883 C   0  0  0  0  0  0  0  0  0  0  0  0
   -0.5040   -2.7482   -1.9025 C   0  0  0  0  0  0  0  0  0  0  0  0
   -0.4941   -4.1446   -2.4458 C   0  0  0  0  0  0  0  0  0  0  0  0
   -1.6719   -2.0750   -1.9418 N   0  0  0  0  0  0  0  0  0  0  0  0
   -1.6805   -0.8173   -1.4574 C   0  0  0  0  0  0  0  0  0  0  0  0
   -0.6085   -0.2038   -0.9287 N   0  0  0  0  0  0  0  0  0  0  0  0
   -2.9753   -0.0378   -1.4994 C   0  0  0  0  0  0  0  0  0  0  0  0
   -4.0470   -0.7172   -0.6484 C   0  0  0  0  0  0  0  0  0  0  0  0
   -3.4511    0.1517   -2.9390 C   0  0  0  0  0  0  0  0  0  0  0  0
    0.0521    0.7230    4.2827 H   0  0  0  0  0  0  0  0  0  0  0  0
   -0.8865    1.7776    3.1987 H   0  0  0  0  0  0  0  0  0  0  0  0
    0.7469    2.2397    3.6625 H   0  0  0  0  0  0  0  0  0  0  0  0
    1.6632    0.2604    2.4374 H   0  0  0  0  0  0  0  0  0  0  0  0
    0.0134   -0.1981    1.9606 H   0  0  0  0  0  0  0  0  0  0  0  0
    2.7293    3.1471    1.5800 H   0  0  0  0  0  0  0  0  0  0  0  0
    4.0636    3.1532    0.4003 H   0  0  0  0  0  0  0  0  0  0  0  0
    5.4264    1.7426    1.9508 H   0  0  0  0  0  0  0  0  0  0  0  0
    4.1043    1.7281    3.1118 H   0  0  0  0  0  0  0  0  0  0  0  0
    4.9337    3.2590    2.7422 H   0  0  0  0  0  0  0  0  0  0  0  0
    1.5846   -2.7270   -1.3546 H   0  0  0  0  0  0  0  0  0  0  0  0
    0.2105   -4.2211   -3.2798 H   0  0  0  0  0  0  0  0  0  0  0  0
   -0.2042   -4.8530   -1.6636 H   0  0  0  0  0  0  0  0  0  0  0  0
   -1.4865   -4.4279   -2.8112 H   0  0  0  0  0  0  0  0  0  0  0  0
   -2.7905    0.9573   -1.0742 H   0  0  0  0  0  0  0  0  0  0  0  0
   -3.7065   -0.8386    0.3861 H   0  0  0  0  0  0  0  0  0  0  0  0
   -4.9645   -0.1192   -0.6321 H   0  0  0  0  0  0  0  0  0  0  0  0
   -4.3011   -1.7112   -1.0333 H   0  0  0  0  0  0  0  0  0  0  0  0
   -2.6841    0.6501   -3.5423 H   0  0  0  0  0  0  0  0  0  0  0  0
   -3.6818   -0.8058   -3.4197 H   0  0  0  0  0  0  0  0  0  0  0  0
   -4.3557    0.7684   -2.9692 H   0  0  0  0  0  0  0  0  0  0  0  0
  1  2  1  0
  2  3  1  0
  3  4  1  0
  4  5  2  0
  4  6  1  0
  6  7  1  0
  7  8  1  0
  4  9  1  0
  9 10  1  0
 10 11  2  0
 11 12  1  0
 12 13  1  0
 12 14  2  0
 14 15  1  0
 15 16  2  0
 15 17  1  0
 17 18  1  0
 17 19  1  0
 16 10  1  0
  1 20  1  0
  1 21  1  0
  1 22  1  0
  2 23  1  0
  2 24  1  0
  7 25  1  0
  7 26  1  0
  8 27  1  0
  8 28  1  0
  8 29  1  0
 11 30  1  0
 13 31  1  0
 13 32  1  0
 13 33  1  0
 17 34  1  0
 18 35  1  0
 18 36  1  0
 18 37  1  0
 19 38  1  0
 19 39  1  0
 19 40  1  0
M  END
>  <Energy>  (6) 
-101.1756092830891

>  <Real charge>  (6) 
0

>  <Mult>  (6) 
1

$$$$
mol_19 264
     RDKit          3D

 40 40  0  0  0  0  0  0  0  0999 V2000
   -4.4578    2.6545    1.6080 C   0  0  0  0  0  0  0  0  0  0  0  0
   -3.6391    1.4007    1.8379 C   0  0  0  0  0  0  0  0  0  0  0  0
   -3.2324    0.8919    0.5784 O   0  0  0  0  0  0  0  0  0  0  0  0
   -1.9891   -0.1566    0.5282 P   0  0  0  0  0  5  0  0  0  0  0  0
   -2.2768   -1.7753    1.5624 S   0  0  0  0  0  0  0  0  0  0  0  0
   -1.8390   -0.3504   -1.0728 O   0  0  0  0  0  0  0  0  0  0  0  0
   -1.8215    0.7869   -1.9150 C   0  0  0  0  0  0  0  0  0  0  0  0
   -1.1574    0.4091   -3.2229 C   0  0  0  0  0  0  0  0  0  0  0  0
   -0.7660    0.8150    0.9427 O   0  0  0  0  0  0  0  0  0  0  0  0
    0.5397    0.4211    0.8245 C   0  0  0  0  0  0  0  0  0  0  0  0
    1.4995    1.2449    1.3581 C   0  0  0  0  0  0  0  0  0  0  0  0
    2.8026    0.8270    1.1994 C   0  0  0  0  0  0  0  0  0  0  0  0
    3.9334    1.6448    1.7456 C   0  0  0  0  0  0  0  0  0  0  0  0
    3.1174   -0.3164    0.5573 N   0  0  0  0  0  0  0  0  0  0  0  0
    2.1010   -1.0527    0.0680 C   0  0  0  0  0  0  0  0  0  0  0  0
    0.8046   -0.7152    0.1750 N   0  0  0  0  0  0  0  0  0  0  0  0
    2.4493   -2.3434   -0.6381 C   0  0  0  0  0  0  0  0  0  0  0  0
    1.9138   -2.3479   -2.0696 C   0  0  0  0  0  0  0  0  0  0  0  0
    1.9276   -3.5457    0.1474 C   0  0  0  0  0  0  0  0  0  0  0  0
   -5.3305    2.4365    0.9835 H   0  0  0  0  0  0  0  0  0  0  0  0
   -3.8667    3.4082    1.0771 H   0  0  0  0  0  0  0  0  0  0  0  0
   -4.7992    3.0774    2.5568 H   0  0  0  0  0  0  0  0  0  0  0  0
   -2.7653    1.6340    2.4545 H   0  0  0  0  0  0  0  0  0  0  0  0
   -4.2458    0.6486    2.3508 H   0  0  0  0  0  0  0  0  0  0  0  0
   -2.8517    1.1083   -2.0959 H   0  0  0  0  0  0  0  0  0  0  0  0
   -1.2750    1.6103   -1.4458 H   0  0  0  0  0  0  0  0  0  0  0  0
   -1.6846   -0.4249   -3.6978 H   0  0  0  0  0  0  0  0  0  0  0  0
   -1.1432    1.2573   -3.9128 H   0  0  0  0  0  0  0  0  0  0  0  0
   -0.1281    0.0785   -3.0496 H   0  0  0  0  0  0  0  0  0  0  0  0
    1.2442    2.1617    1.8706 H   0  0  0  0  0  0  0  0  0  0  0  0
    4.8966    1.1702    1.5323 H   0  0  0  0  0  0  0  0  0  0  0  0
    3.8368    1.7467    2.8311 H   0  0  0  0  0  0  0  0  0  0  0  0
    3.9356    2.6397    1.2896 H   0  0  0  0  0  0  0  0  0  0  0  0
    3.5429   -2.4225   -0.6891 H   0  0  0  0  0  0  0  0  0  0  0  0
    2.2271   -3.2557   -2.5963 H   0  0  0  0  0  0  0  0  0  0  0  0
    2.2905   -1.4859   -2.6315 H   0  0  0  0  0  0  0  0  0  0  0  0
    0.8189   -2.3081   -2.0937 H   0  0  0  0  0  0  0  0  0  0  0  0
    0.8338   -3.5427    0.2140 H   0  0  0  0  0  0  0  0  0  0  0  0
    2.2317   -4.4824   -0.3319 H   0  0  0  0  0  0  0  0  0  0  0  0
    2.3225   -3.5474    1.1695 H   0  0  0  0  0  0  0  0  0  0  0  0
  1  2  1  0
  2  3  1  0
  3  4  1  0
  4  5  2  0
  4  6  1  0
  6  7  1  0
  7  8  1  0
  4  9  1  0
  9 10  1  0
 10 11  2  0
 11 12  1  0
 12 13  1  0
 12 14  2  0
 14 15  1  0
 15 16  2  0
 15 17  1  0
 17 18  1  0
 17 19  1  0
 16 10  1  0
  1 20  1  0
  1 21  1  0
  1 22  1  0
  2 23  1  0
  2 24  1  0
  7 25  1  0
  7 26  1  0
  8 27  1  0
  8 28  1  0
  8 29  1  0
 11 30  1  0
 13 31  1  0
 13 32  1  0
 13 33  1  0
 17 34  1  0
 18 35  1  0
 18 36  1  0
 18 37  1  0
 19 38  1  0
 19 39  1  0
 19 40  1  0
M  END
>  <Energy>  (7) 
-101.17544834721095

>  <Real charge>  (7) 
0

>  <Mult>  (7) 
1

$$$$
mol_19 633
     RDKit          3D

 40 40  0  0  0  0  0  0  0  0999 V2000
   -5.5102    1.6654   -0.2651 C   0  0  0  0  0  0  0  0  0  0  0  0
   -4.1159    2.2457   -0.1444 C   0  0  0  0  0  0  0  0  0  0  0  0
   -3.2016    1.3533   -0.7623 O   0  0  0  0  0  0  0  0  0  0  0  0
   -1.6264    1.4612   -0.3694 P   0  0  0  0  0  5  0  0  0  0  0  0
   -0.8563    3.2249   -0.6381 S   0  0  0  0  0  0  0  0  0  0  0  0
   -1.6501    0.9007    1.1501 O   0  0  0  0  0  0  0  0  0  0  0  0
   -2.2432   -0.3542    1.4308 C   0  0  0  0  0  0  0  0  0  0  0  0
   -1.6195   -0.9081    2.6955 C   0  0  0  0  0  0  0  0  0  0  0  0
   -1.0363    0.2491   -1.2595 O   0  0  0  0  0  0  0  0  0  0  0  0
    0.2541   -0.1854   -1.1195 C   0  0  0  0  0  0  0  0  0  0  0  0
    0.7481   -1.0214   -2.0901 C   0  0  0  0  0  0  0  0  0  0  0  0
    2.0383   -1.4637   -1.8987 C   0  0  0  0  0  0  0  0  0  0  0  0
    2.6835   -2.3761   -2.8969 C   0  0  0  0  0  0  0  0  0  0  0  0
    2.7684   -1.1045   -0.8232 N   0  0  0  0  0  0  0  0  0  0  0  0
    2.1902   -0.2795    0.0721 C   0  0  0  0  0  0  0  0  0  0  0  0
    0.9361    0.1899   -0.0332 N   0  0  0  0  0  0  0  0  0  0  0  0
    2.9865    0.1381    1.2875 C   0  0  0  0  0  0  0  0  0  0  0  0
    3.2932   -1.0684    2.1733 C   0  0  0  0  0  0  0  0  0  0  0  0
    4.2675    0.8651    0.8809 C   0  0  0  0  0  0  0  0  0  0  0  0
   -5.7750    1.5125   -1.3166 H   0  0  0  0  0  0  0  0  0  0  0  0
   -6.2499    2.3284    0.1924 H   0  0  0  0  0  0  0  0  0  0  0  0
   -5.5637    0.6863    0.2222 H   0  0  0  0  0  0  0  0  0  0  0  0
   -4.0708    3.2134   -0.6528 H   0  0  0  0  0  0  0  0  0  0  0  0
   -3.8601    2.3855    0.9106 H   0  0  0  0  0  0  0  0  0  0  0  0
   -3.3182   -0.2116    1.5747 H   0  0  0  0  0  0  0  0  0  0  0  0
   -2.0938   -1.0560    0.6056 H   0  0  0  0  0  0  0  0  0  0  0  0
   -0.5396   -1.0374    2.5676 H   0  0  0  0  0  0  0  0  0  0  0  0
   -1.7605   -0.2150    3.5314 H   0  0  0  0  0  0  0  0  0  0  0  0
   -2.0616   -1.8731    2.9585 H   0  0  0  0  0  0  0  0  0  0  0  0
    0.1580   -1.3086   -2.9491 H   0  0  0  0  0  0  0  0  0  0  0  0
    2.1145   -3.3072   -2.9817 H   0  0  0  0  0  0  0  0  0  0  0  0
    3.7047   -2.6275   -2.5924 H   0  0  0  0  0  0  0  0  0  0  0  0
    2.7300   -1.8921   -3.8774 H   0  0  0  0  0  0  0  0  0  0  0  0
    2.3765    0.8382    1.8731 H   0  0  0  0  0  0  0  0  0  0  0  0
    2.3705   -1.5762    2.4761 H   0  0  0  0  0  0  0  0  0  0  0  0
    3.8192   -0.7573    3.0822 H   0  0  0  0  0  0  0  0  0  0  0  0
    3.9217   -1.8020    1.6559 H   0  0  0  0  0  0  0  0  0  0  0  0
    4.0416    1.7346    0.2535 H   0  0  0  0  0  0  0  0  0  0  0  0
    4.8077    1.2199    1.7651 H   0  0  0  0  0  0  0  0  0  0  0  0
    4.9425    0.2132    0.3151 H   0  0  0  0  0  0  0  0  0  0  0  0
  1  2  1  0
  2  3  1  0
  3  4  1  0
  4  5  2  0
  4  6  1  0
  6  7  1  0
  7  8  1  0
  4  9  1  0
  9 10  1  0
 10 11  2  0
 11 12  1  0
 12 13  1  0
 12 14  2  0
 14 15  1  0
 15 16  2  0
 15 17  1  0
 17 18  1  0
 17 19  1  0
 16 10  1  0
  1 20  1  0
  1 21  1  0
  1 22  1  0
  2 23  1  0
  2 24  1  0
  7 25  1  0
  7 26  1  0
  8 27  1  0
  8 28  1  0
  8 29  1  0
 11 30  1  0
 13 31  1  0
 13 32  1  0
 13 33  1  0
 17 34  1  0
 18 35  1  0
 18 36  1  0
 18 37  1  0
 19 38  1  0
 19 39  1  0
 19 40  1  0
M  END
>  <Energy>  (8) 
-101.15684440247242

>  <Real charge>  (8) 
0

>  <Mult>  (8) 
1

$$$$
mol_19 639
     RDKit          3D

 40 40  0  0  0  0  0  0  0  0999 V2000
   -2.6160    1.6815   -2.6328 C   0  0  0  0  0  0  0  0  0  0  0  0
   -2.6714    1.6618   -1.1191 C   0  0  0  0  0  0  0  0  0  0  0  0
   -1.8327    0.6193   -0.6524 O   0  0  0  0  0  0  0  0  0  0  0  0
   -2.0024    0.1222    0.8810 P   0  0  0  0  0  5  0  0  0  0  0  0
   -2.0126    1.4597    2.2897 S   0  0  0  0  0  0  0  0  0  0  0  0
   -3.4122   -0.6833    0.7812 O   0  0  0  0  0  0  0  0  0  0  0  0
   -3.5177   -1.7853   -0.1039 C   0  0  0  0  0  0  0  0  0  0  0  0
   -4.9847   -2.1144   -0.2898 C   0  0  0  0  0  0  0  0  0  0  0  0
   -0.9578   -1.1030    1.0076 O   0  0  0  0  0  0  0  0  0  0  0  0
    0.3938   -0.9037    0.9164 C   0  0  0  0  0  0  0  0  0  0  0  0
    1.2071   -1.9807    1.1703 C   0  0  0  0  0  0  0  0  0  0  0  0
    2.5603   -1.7483    1.0620 C   0  0  0  0  0  0  0  0  0  0  0  0
    3.5427   -2.8498    1.3211 C   0  0  0  0  0  0  0  0  0  0  0  0
    3.0567   -0.5405    0.7259 N   0  0  0  0  0  0  0  0  0  0  0  0
    2.1733    0.4516    0.4974 C   0  0  0  0  0  0  0  0  0  0  0  0
    0.8396    0.3095    0.5749 N   0  0  0  0  0  0  0  0  0  0  0  0
    2.7047    1.8182    0.1286 C   0  0  0  0  0  0  0  0  0  0  0  0
    3.5578    2.3936    1.2582 C   0  0  0  0  0  0  0  0  0  0  0  0
    3.4884    1.7627   -1.1819 C   0  0  0  0  0  0  0  0  0  0  0  0
   -3.2458    2.4791   -3.0363 H   0  0  0  0  0  0  0  0  0  0  0  0
   -1.5883    1.8326   -2.9794 H   0  0  0  0  0  0  0  0  0  0  0  0
   -2.9527    0.7234   -3.0426 H   0  0  0  0  0  0  0  0  0  0  0  0
   -2.3148    2.6162   -0.7205 H   0  0  0  0  0  0  0  0  0  0  0  0
   -3.7010    1.4973   -0.7858 H   0  0  0  0  0  0  0  0  0  0  0  0
   -3.0655   -1.5469   -1.0710 H   0  0  0  0  0  0  0  0  0  0  0  0
   -2.9944   -2.6432    0.3292 H   0  0  0  0  0  0  0  0  0  0  0  0
   -5.1113   -2.9687   -0.9606 H   0  0  0  0  0  0  0  0  0  0  0  0
   -5.5218   -1.2555   -0.7059 H   0  0  0  0  0  0  0  0  0  0  0  0
   -5.4531   -2.3476    0.6721 H   0  0  0  0  0  0  0  0  0  0  0  0
    0.8054   -2.9469    1.4416 H   0  0  0  0  0  0  0  0  0  0  0  0
    4.5700   -2.4951    1.1890 H   0  0  0  0  0  0  0  0  0  0  0  0
    3.4382   -3.2163    2.3471 H   0  0  0  0  0  0  0  0  0  0  0  0
    3.3759   -3.6772    0.6245 H   0  0  0  0  0  0  0  0  0  0  0  0
    1.8494    2.4900   -0.0208 H   0  0  0  0  0  0  0  0  0  0  0  0
    4.4489    1.7837    1.4449 H   0  0  0  0  0  0  0  0  0  0  0  0
    2.9876    2.4436    2.1926 H   0  0  0  0  0  0  0  0  0  0  0  0
    3.8909    3.4077    1.0130 H   0  0  0  0  0  0  0  0  0  0  0  0
    4.3769    1.1268   -1.0970 H   0  0  0  0  0  0  0  0  0  0  0  0
    3.8198    2.7641   -1.4769 H   0  0  0  0  0  0  0  0  0  0  0  0
    2.8688    1.3615   -1.9917 H   0  0  0  0  0  0  0  0  0  0  0  0
  1  2  1  0
  2  3  1  0
  3  4  1  0
  4  5  2  0
  4  6  1  0
  6  7  1  0
  7  8  1  0
  4  9  1  0
  9 10  1  0
 10 11  2  0
 11 12  1  0
 12 13  1  0
 12 14  2  0
 14 15  1  0
 15 16  2  0
 15 17  1  0
 17 18  1  0
 17 19  1  0
 16 10  1  0
  1 20  1  0
  1 21  1  0
  1 22  1  0
  2 23  1  0
  2 24  1  0
  7 25  1  0
  7 26  1  0
  8 27  1  0
  8 28  1  0
  8 29  1  0
 11 30  1  0
 13 31  1  0
 13 32  1  0
 13 33  1  0
 17 34  1  0
 18 35  1  0
 18 36  1  0
 18 37  1  0
 19 38  1  0
 19 39  1  0
 19 40  1  0
M  END
>  <Energy>  (9) 
-101.15465673226036

>  <Real charge>  (9) 
0

>  <Mult>  (9) 
1

$$$$
mol_19 484
     RDKit          3D

 40 40  0  0  0  0  0  0  0  0999 V2000
    1.4941    3.6857    0.2218 C   0  0  0  0  0  0  0  0  0  0  0  0
    2.4063    2.5703   -0.2453 C   0  0  0  0  0  0  0  0  0  0  0  0
    1.6317    1.4023   -0.4471 O   0  0  0  0  0  0  0  0  0  0  0  0
    2.0526    0.0349    0.3115 P   0  0  0  0  0  5  0  0  0  0  0  0
    2.0931    0.0469    2.2569 S   0  0  0  0  0  0  0  0  0  0  0  0
    3.4992   -0.2274   -0.3857 O   0  0  0  0  0  0  0  0  0  0  0  0
    4.1719   -1.4449   -0.1103 C   0  0  0  0  0  0  0  0  0  0  0  0
    5.2574   -1.6405   -1.1489 C   0  0  0  0  0  0  0  0  0  0  0  0
    1.1621   -1.0849   -0.4380 O   0  0  0  0  0  0  0  0  0  0  0  0
   -0.2050   -1.0850   -0.3602 C   0  0  0  0  0  0  0  0  0  0  0  0
   -0.8729   -2.0851   -1.0232 C   0  0  0  0  0  0  0  0  0  0  0  0
   -2.2466   -2.0552   -0.9257 C   0  0  0  0  0  0  0  0  0  0  0  0
   -3.0786   -3.0972   -1.6095 C   0  0  0  0  0  0  0  0  0  0  0  0
   -2.8964   -1.1052   -0.2232 N   0  0  0  0  0  0  0  0  0  0  0  0
   -2.1478   -0.1686    0.3926 C   0  0  0  0  0  0  0  0  0  0  0  0
   -0.8061   -0.1222    0.3457 N   0  0  0  0  0  0  0  0  0  0  0  0
   -2.8506    0.9070    1.1894 C   0  0  0  0  0  0  0  0  0  0  0  0
   -3.6481    0.2987    2.3421 C   0  0  0  0  0  0  0  0  0  0  0  0
   -3.7445    1.7559    0.2868 C   0  0  0  0  0  0  0  0  0  0  0  0
    2.0543    4.6138    0.3654 H   0  0  0  0  0  0  0  0  0  0  0  0
    0.6969    3.8634   -0.5076 H   0  0  0  0  0  0  0  0  0  0  0  0
    1.0073    3.4173    1.1652 H   0  0  0  0  0  0  0  0  0  0  0  0
    3.2070    2.4030    0.4818 H   0  0  0  0  0  0  0  0  0  0  0  0
    2.8701    2.8379   -1.1996 H   0  0  0  0  0  0  0  0  0  0  0  0
    3.4693   -2.2833   -0.1428 H   0  0  0  0  0  0  0  0  0  0  0  0
    4.6173   -1.3929    0.8876 H   0  0  0  0  0  0  0  0  0  0  0  0
    5.8080   -2.5679   -0.9684 H   0  0  0  0  0  0  0  0  0  0  0  0
    5.9619   -0.8023   -1.1335 H   0  0  0  0  0  0  0  0  0  0  0  0
    4.8260   -1.6755   -2.1548 H   0  0  0  0  0  0  0  0  0  0  0  0
   -0.3486   -2.8448   -1.5856 H   0  0  0  0  0  0  0  0  0  0  0  0
   -4.1447   -2.9248   -1.4297 H   0  0  0  0  0  0  0  0  0  0  0  0
   -2.8258   -4.0922   -1.2300 H   0  0  0  0  0  0  0  0  0  0  0  0
   -2.9066   -3.0697   -2.6900 H   0  0  0  0  0  0  0  0  0  0  0  0
   -2.0876    1.5673    1.6219 H   0  0  0  0  0  0  0  0  0  0  0  0
   -4.1055    1.0845    2.9527 H   0  0  0  0  0  0  0  0  0  0  0  0
   -3.0006   -0.2990    2.9934 H   0  0  0  0  0  0  0  0  0  0  0  0
   -4.4501   -0.3547    1.9805 H   0  0  0  0  0  0  0  0  0  0  0  0
   -4.5492    1.1623   -0.1615 H   0  0  0  0  0  0  0  0  0  0  0  0
   -4.2055    2.5707    0.8552 H   0  0  0  0  0  0  0  0  0  0  0  0
   -3.1656    2.2013   -0.5300 H   0  0  0  0  0  0  0  0  0  0  0  0
  1  2  1  0
  2  3  1  0
  3  4  1  0
  4  5  2  0
  4  6  1  0
  6  7  1  0
  7  8  1  0
  4  9  1  0
  9 10  1  0
 10 11  2  0
 11 12  1  0
 12 13  1  0
 12 14  2  0
 14 15  1  0
 15 16  2  0
 15 17  1  0
 17 18  1  0
 17 19  1  0
 16 10  1  0
  1 20  1  0
  1 21  1  0
  1 22  1  0
  2 23  1  0
  2 24  1  0
  7 25  1  0
  7 26  1  0
  8 27  1  0
  8 28  1  0
  8 29  1  0
 11 30  1  0
 13 31  1  0
 13 32  1  0
 13 33  1  0
 17 34  1  0
 18 35  1  0
 18 36  1  0
 18 37  1  0
 19 38  1  0
 19 39  1  0
 19 40  1  0
M  END
>  <Energy>  (10) 
-101.10643961361036

>  <Real charge>  (10) 
0

>  <Mult>  (10) 
1

$$$$
