mol_75 169
     RDKit          3D

 23 22  0  0  0  0  0  0  0  0999 V2000
    4.1562    0.0484   -0.0255 C   0  0  0  0  0  0  0  0  0  0  0  0
    2.8122    0.3523   -0.6680 C   0  0  0  0  0  0  0  0  0  0  0  0
    1.6526   -0.0606    0.2373 C   0  0  0  0  0  0  0  0  0  0  0  0
    0.3041    0.2462   -0.4114 C   0  0  0  0  0  0  0  0  0  0  0  0
   -0.8527   -0.1569    0.4728 C   0  0  0  0  0  0  0  0  0  0  0  0
   -0.7587   -0.6689    1.5789 O   0  0  0  0  0  0  0  0  0  0  0  0
   -2.0259    0.1398   -0.1561 O   0  0  0  0  0  0  0  0  0  0  0  0
   -3.1970   -0.2018    0.5952 C   0  0  0  0  0  0  0  0  0  0  0  0
   -4.4138    0.1829   -0.2235 C   0  0  0  0  0  0  0  0  0  0  0  0
    4.2620   -1.0225    0.1751 H   0  0  0  0  0  0  0  0  0  0  0  0
    4.2700    0.5883    0.9200 H   0  0  0  0  0  0  0  0  0  0  0  0
    4.9712    0.3517   -0.6900 H   0  0  0  0  0  0  0  0  0  0  0  0
    2.7517    1.4252   -0.8848 H   0  0  0  0  0  0  0  0  0  0  0  0
    2.7437   -0.1768   -1.6256 H   0  0  0  0  0  0  0  0  0  0  0  0
    1.7282    0.4645    1.1978 H   0  0  0  0  0  0  0  0  0  0  0  0
    1.7202   -1.1331    0.4590 H   0  0  0  0  0  0  0  0  0  0  0  0
    0.2245    1.3211   -0.6088 H   0  0  0  0  0  0  0  0  0  0  0  0
    0.2164   -0.2989   -1.3579 H   0  0  0  0  0  0  0  0  0  0  0  0
   -3.2090   -1.2798    0.7915 H   0  0  0  0  0  0  0  0  0  0  0  0
   -3.2009    0.3469    1.5437 H   0  0  0  0  0  0  0  0  0  0  0  0
   -5.3364   -0.0597    0.3110 H   0  0  0  0  0  0  0  0  0  0  0  0
   -4.4134   -0.3419   -1.1846 H   0  0  0  0  0  0  0  0  0  0  0  0
   -4.4054    1.2550   -0.4462 H   0  0  0  0  0  0  0  0  0  0  0  0
  1  2  1  0
  2  3  1  0
  3  4  1  0
  4  5  1  0
  5  6  2  0
  5  7  1  0
  7  8  1  0
  8  9  1  0
  1 10  1  0
  1 11  1  0
  1 12  1  0
  2 13  1  0
  2 14  1  0
  3 15  1  0
  3 16  1  0
  4 17  1  0
  4 18  1  0
  8 19  1  0
  8 20  1  0
  9 21  1  0
  9 22  1  0
  9 23  1  0
M  END
>  <Energy>  (1) 
-12.891949829373443

>  <Real charge>  (1) 
0

>  <Mult>  (1) 
1

$$$$
mol_75 92
     RDKit          3D

 23 22  0  0  0  0  0  0  0  0999 V2000
   -3.7128    0.5123    0.9536 C   0  0  0  0  0  0  0  0  0  0  0  0
   -2.2817    0.6566    0.4596 C   0  0  0  0  0  0  0  0  0  0  0  0
   -1.8350   -0.5788   -0.3262 C   0  0  0  0  0  0  0  0  0  0  0  0
   -0.4082   -0.4478   -0.8584 C   0  0  0  0  0  0  0  0  0  0  0  0
    0.6419   -0.5551    0.2239 C   0  0  0  0  0  0  0  0  0  0  0  0
    0.4576   -0.9847    1.3536 O   0  0  0  0  0  0  0  0  0  0  0  0
    1.8406   -0.1253   -0.2640 O   0  0  0  0  0  0  0  0  0  0  0  0
    2.9175   -0.1978    0.6781 C   0  0  0  0  0  0  0  0  0  0  0  0
    4.1735    0.3166    0.0020 C   0  0  0  0  0  0  0  0  0  0  0  0
   -3.8127   -0.3513    1.6188 H   0  0  0  0  0  0  0  0  0  0  0  0
   -4.4061    0.3837    0.1162 H   0  0  0  0  0  0  0  0  0  0  0  0
   -4.0137    1.4059    1.5093 H   0  0  0  0  0  0  0  0  0  0  0  0
   -1.6238    0.8205    1.3200 H   0  0  0  0  0  0  0  0  0  0  0  0
   -2.2104    1.5468   -0.1763 H   0  0  0  0  0  0  0  0  0  0  0  0
   -1.9246   -1.4724    0.3033 H   0  0  0  0  0  0  0  0  0  0  0  0
   -2.5110   -0.7203   -1.1785 H   0  0  0  0  0  0  0  0  0  0  0  0
   -0.2934    0.5116   -1.3753 H   0  0  0  0  0  0  0  0  0  0  0  0
   -0.2167   -1.2540   -1.5756 H   0  0  0  0  0  0  0  0  0  0  0  0
    2.6873    0.4224    1.5517 H   0  0  0  0  0  0  0  0  0  0  0  0
    3.0653   -1.2374    0.9912 H   0  0  0  0  0  0  0  0  0  0  0  0
    4.4054   -0.2806   -0.8860 H   0  0  0  0  0  0  0  0  0  0  0  0
    5.0269    0.2805    0.6849 H   0  0  0  0  0  0  0  0  0  0  0  0
    4.0342    1.3488   -0.3359 H   0  0  0  0  0  0  0  0  0  0  0  0
  1  2  1  0
  2  3  1  0
  3  4  1  0
  4  5  1  0
  5  6  2  0
  5  7  1  0
  7  8  1  0
  8  9  1  0
  1 10  1  0
  1 11  1  0
  1 12  1  0
  2 13  1  0
  2 14  1  0
  3 15  1  0
  3 16  1  0
  4 17  1  0
  4 18  1  0
  8 19  1  0
  8 20  1  0
  9 21  1  0
  9 22  1  0
  9 23  1  0
M  END
>  <Energy>  (2) 
-12.859608388680323

>  <Real charge>  (2) 
0

>  <Mult>  (2) 
1

$$$$
mol_75 7
     RDKit          3D

 23 22  0  0  0  0  0  0  0  0999 V2000
   -3.1029    1.3021    0.1273 C   0  0  0  0  0  0  0  0  0  0  0  0
   -2.1968    0.1038    0.3641 C   0  0  0  0  0  0  0  0  0  0  0  0
   -1.4170   -0.2652   -0.8998 C   0  0  0  0  0  0  0  0  0  0  0  0
   -0.5384   -1.4973   -0.7041 C   0  0  0  0  0  0  0  0  0  0  0  0
    0.6042   -1.2475    0.2476 C   0  0  0  0  0  0  0  0  0  0  0  0
    0.6910   -1.7462    1.3614 O   0  0  0  0  0  0  0  0  0  0  0  0
    1.5133   -0.4013   -0.3095 O   0  0  0  0  0  0  0  0  0  0  0  0
    2.6319   -0.1041    0.5344 C   0  0  0  0  0  0  0  0  0  0  0  0
    3.5433    0.8535   -0.2081 C   0  0  0  0  0  0  0  0  0  0  0  0
   -3.8336    1.0922   -0.6603 H   0  0  0  0  0  0  0  0  0  0  0  0
   -2.5212    2.1811   -0.1684 H   0  0  0  0  0  0  0  0  0  0  0  0
   -3.6510    1.5493    1.0419 H   0  0  0  0  0  0  0  0  0  0  0  0
   -1.5053    0.3384    1.1812 H   0  0  0  0  0  0  0  0  0  0  0  0
   -2.8058   -0.7482    0.6879 H   0  0  0  0  0  0  0  0  0  0  0  0
   -2.1254   -0.4691   -1.7120 H   0  0  0  0  0  0  0  0  0  0  0  0
   -0.8064    0.5891   -1.2161 H   0  0  0  0  0  0  0  0  0  0  0  0
   -1.1299   -2.3380   -0.3237 H   0  0  0  0  0  0  0  0  0  0  0  0
   -0.1157   -1.8220   -1.6621 H   0  0  0  0  0  0  0  0  0  0  0  0
    3.1750   -1.0270    0.7667 H   0  0  0  0  0  0  0  0  0  0  0  0
    2.2821    0.3628    1.4620 H   0  0  0  0  0  0  0  0  0  0  0  0
    4.4158    1.1113    0.3986 H   0  0  0  0  0  0  0  0  0  0  0  0
    3.8851    0.4092   -1.1488 H   0  0  0  0  0  0  0  0  0  0  0  0
    3.0077    1.7731   -0.4664 H   0  0  0  0  0  0  0  0  0  0  0  0
  1  2  1  0
  2  3  1  0
  3  4  1  0
  4  5  1  0
  5  6  2  0
  5  7  1  0
  7  8  1  0
  8  9  1  0
  1 10  1  0
  1 11  1  0
  1 12  1  0
  2 13  1  0
  2 14  1  0
  3 15  1  0
  3 16  1  0
  4 17  1  0
  4 18  1  0
  8 19  1  0
  8 20  1  0
  9 21  1  0
  9 22  1  0
  9 23  1  0
M  END
>  <Energy>  (3) 
-12.483744806614467

>  <Real charge>  (3) 
0

>  <Mult>  (3) 
1

$$$$
mol_75 320
     RDKit          3D

 23 22  0  0  0  0  0  0  0  0999 V2000
   -3.4562    0.5839    0.4691 C   0  0  0  0  0  0  0  0  0  0  0  0
   -2.0210    0.0893    0.5610 C   0  0  0  0  0  0  0  0  0  0  0  0
   -1.6839   -0.8630   -0.5891 C   0  0  0  0  0  0  0  0  0  0  0  0
   -0.2543   -1.3970   -0.5043 C   0  0  0  0  0  0  0  0  0  0  0  0
    0.7891   -0.3533   -0.8332 C   0  0  0  0  0  0  0  0  0  0  0  0
    0.5779    0.7002   -1.4161 O   0  0  0  0  0  0  0  0  0  0  0  0
    2.0093   -0.7834   -0.4023 O   0  0  0  0  0  0  0  0  0  0  0  0
    3.1096    0.1012   -0.6602 C   0  0  0  0  0  0  0  0  0  0  0  0
    3.2334    1.1219    0.4555 C   0  0  0  0  0  0  0  0  0  0  0  0
   -3.6780    1.2599    1.3008 H   0  0  0  0  0  0  0  0  0  0  0  0
   -4.1627   -0.2511    0.5126 H   0  0  0  0  0  0  0  0  0  0  0  0
   -3.6241    1.1285   -0.4655 H   0  0  0  0  0  0  0  0  0  0  0  0
   -1.8790   -0.4220    1.5202 H   0  0  0  0  0  0  0  0  0  0  0  0
   -1.3466    0.9526    0.5521 H   0  0  0  0  0  0  0  0  0  0  0  0
   -1.8438   -0.3577   -1.5493 H   0  0  0  0  0  0  0  0  0  0  0  0
   -2.3744   -1.7149   -0.5584 H   0  0  0  0  0  0  0  0  0  0  0  0
   -0.0664   -1.7880    0.5020 H   0  0  0  0  0  0  0  0  0  0  0  0
   -0.1312   -2.2152   -1.2229 H   0  0  0  0  0  0  0  0  0  0  0  0
    3.0112    0.5852   -1.6386 H   0  0  0  0  0  0  0  0  0  0  0  0
    4.0137   -0.5154   -0.6964 H   0  0  0  0  0  0  0  0  0  0  0  0
    3.3326    0.6220    1.4246 H   0  0  0  0  0  0  0  0  0  0  0  0
    4.1046    1.7641    0.2987 H   0  0  0  0  0  0  0  0  0  0  0  0
    2.3404    1.7524    0.5126 H   0  0  0  0  0  0  0  0  0  0  0  0
  1  2  1  0
  2  3  1  0
  3  4  1  0
  4  5  1  0
  5  6  2  0
  5  7  1  0
  7  8  1  0
  8  9  1  0
  1 10  1  0
  1 11  1  0
  1 12  1  0
  2 13  1  0
  2 14  1  0
  3 15  1  0
  3 16  1  0
  4 17  1  0
  4 18  1  0
  8 19  1  0
  8 20  1  0
  9 21  1  0
  9 22  1  0
  9 23  1  0
M  END
>  <Energy>  (4) 
-12.457573430918039

>  <Real charge>  (4) 
0

>  <Mult>  (4) 
1

$$$$
mol_75 183
     RDKit          3D

 23 22  0  0  0  0  0  0  0  0999 V2000
   -4.0016   -0.1458   -0.3825 C   0  0  0  0  0  0  0  0  0  0  0  0
   -2.8146    0.2193    0.4946 C   0  0  0  0  0  0  0  0  0  0  0  0
   -1.4985   -0.2594   -0.1165 C   0  0  0  0  0  0  0  0  0  0  0  0
   -0.3083    0.1091    0.7673 C   0  0  0  0  0  0  0  0  0  0  0  0
    1.0011   -0.3577    0.1752 C   0  0  0  0  0  0  0  0  0  0  0  0
    1.1281   -0.9605   -0.8805 O   0  0  0  0  0  0  0  0  0  0  0  0
    2.0223    0.0025    1.0045 O   0  0  0  0  0  0  0  0  0  0  0  0
    3.3382   -0.3780    0.5762 C   0  0  0  0  0  0  0  0  0  0  0  0
    3.9155    0.6803   -0.3449 C   0  0  0  0  0  0  0  0  0  0  0  0
   -4.0752   -1.2304   -0.5114 H   0  0  0  0  0  0  0  0  0  0  0  0
   -4.9322    0.2060    0.0736 H   0  0  0  0  0  0  0  0  0  0  0  0
   -3.9137    0.3130   -1.3725 H   0  0  0  0  0  0  0  0  0  0  0  0
   -2.7886    1.3068    0.6299 H   0  0  0  0  0  0  0  0  0  0  0  0
   -2.9493   -0.2281    1.4863 H   0  0  0  0  0  0  0  0  0  0  0  0
   -1.5305   -1.3471   -0.2581 H   0  0  0  0  0  0  0  0  0  0  0  0
   -1.3703    0.1837   -1.1121 H   0  0  0  0  0  0  0  0  0  0  0  0
   -0.2600    1.1972    0.8874 H   0  0  0  0  0  0  0  0  0  0  0  0
   -0.4220   -0.3550    1.7534 H   0  0  0  0  0  0  0  0  0  0  0  0
    3.9562   -0.4589    1.4764 H   0  0  0  0  0  0  0  0  0  0  0  0
    3.3328   -1.3653    0.1002 H   0  0  0  0  0  0  0  0  0  0  0  0
    3.9153    1.6590    0.1463 H   0  0  0  0  0  0  0  0  0  0  0  0
    3.3144    0.7805   -1.2541 H   0  0  0  0  0  0  0  0  0  0  0  0
    4.9408    0.4287   -0.6301 H   0  0  0  0  0  0  0  0  0  0  0  0
  1  2  1  0
  2  3  1  0
  3  4  1  0
  4  5  1  0
  5  6  2  0
  5  7  1  0
  7  8  1  0
  8  9  1  0
  1 10  1  0
  1 11  1  0
  1 12  1  0
  2 13  1  0
  2 14  1  0
  3 15  1  0
  3 16  1  0
  4 17  1  0
  4 18  1  0
  8 19  1  0
  8 20  1  0
  9 21  1  0
  9 22  1  0
  9 23  1  0
M  END
>  <Energy>  (5) 
-12.45659264854211

>  <Real charge>  (5) 
0

>  <Mult>  (5) 
1

$$$$
mol_75 15
     RDKit          3D

 23 22  0  0  0  0  0  0  0  0999 V2000
   -3.5557    1.0917    0.8480 C   0  0  0  0  0  0  0  0  0  0  0  0
   -2.3098    0.8324    0.0153 C   0  0  0  0  0  0  0  0  0  0  0  0
   -1.6954   -0.5316    0.3396 C   0  0  0  0  0  0  0  0  0  0  0  0
   -0.4562   -0.8294   -0.5043 C   0  0  0  0  0  0  0  0  0  0  0  0
    0.7488   -0.0097   -0.1012 C   0  0  0  0  0  0  0  0  0  0  0  0
    0.8641    0.6159    0.9425 O   0  0  0  0  0  0  0  0  0  0  0  0
    1.7026   -0.1041   -1.0714 O   0  0  0  0  0  0  0  0  0  0  0  0
    2.9181    0.6178   -0.8244 C   0  0  0  0  0  0  0  0  0  0  0  0
    3.8786   -0.2350   -0.0171 C   0  0  0  0  0  0  0  0  0  0  0  0
   -3.3209    1.0854    1.9172 H   0  0  0  0  0  0  0  0  0  0  0  0
   -3.9810    2.0690    0.5993 H   0  0  0  0  0  0  0  0  0  0  0  0
   -4.3196    0.3308    0.6588 H   0  0  0  0  0  0  0  0  0  0  0  0
   -1.5848    1.6321    0.2024 H   0  0  0  0  0  0  0  0  0  0  0  0
   -2.5737    0.8774   -1.0478 H   0  0  0  0  0  0  0  0  0  0  0  0
   -1.4492   -0.5844    1.4070 H   0  0  0  0  0  0  0  0  0  0  0  0
   -2.4420   -1.3117    0.1459 H   0  0  0  0  0  0  0  0  0  0  0  0
   -0.1844   -1.8841   -0.3835 H   0  0  0  0  0  0  0  0  0  0  0  0
   -0.6768   -0.6462   -1.5619 H   0  0  0  0  0  0  0  0  0  0  0  0
    2.7197    1.5762   -0.3308 H   0  0  0  0  0  0  0  0  0  0  0  0
    3.3591    0.8447   -1.8006 H   0  0  0  0  0  0  0  0  0  0  0  0
    4.0676   -1.1866   -0.5248 H   0  0  0  0  0  0  0  0  0  0  0  0
    4.8307    0.2835    0.1267 H   0  0  0  0  0  0  0  0  0  0  0  0
    3.4601   -0.4760    0.9652 H   0  0  0  0  0  0  0  0  0  0  0  0
  1  2  1  0
  2  3  1  0
  3  4  1  0
  4  5  1  0
  5  6  2  0
  5  7  1  0
  7  8  1  0
  8  9  1  0
  1 10  1  0
  1 11  1  0
  1 12  1  0
  2 13  1  0
  2 14  1  0
  3 15  1  0
  3 16  1  0
  4 17  1  0
  4 18  1  0
  8 19  1  0
  8 20  1  0
  9 21  1  0
  9 22  1  0
  9 23  1  0
M  END
>  <Energy>  (6) 
-12.421870389310145

>  <Real charge>  (6) 
0

>  <Mult>  (6) 
1

$$$$
mol_75 333
     RDKit          3D

 23 22  0  0  0  0  0  0  0  0999 V2000
   -3.5663    1.1186   -0.2903 C   0  0  0  0  0  0  0  0  0  0  0  0
   -2.7464   -0.1498   -0.1159 C   0  0  0  0  0  0  0  0  0  0  0  0
   -1.2901    0.0643   -0.5242 C   0  0  0  0  0  0  0  0  0  0  0  0
   -0.4717   -1.2090   -0.3474 C   0  0  0  0  0  0  0  0  0  0  0  0
    0.9533   -0.9912   -0.7840 C   0  0  0  0  0  0  0  0  0  0  0  0
    1.3947   -1.3171   -1.8774 O   0  0  0  0  0  0  0  0  0  0  0  0
    1.6607   -0.3689    0.1987 O   0  0  0  0  0  0  0  0  0  0  0  0
    3.0277   -0.1066   -0.1394 C   0  0  0  0  0  0  0  0  0  0  0  0
    3.6819    0.5874    1.0394 C   0  0  0  0  0  0  0  0  0  0  0  0
   -4.6047    0.9427    0.0075 H   0  0  0  0  0  0  0  0  0  0  0  0
   -3.5634    1.4471   -1.3345 H   0  0  0  0  0  0  0  0  0  0  0  0
   -3.1688    1.9307    0.3268 H   0  0  0  0  0  0  0  0  0  0  0  0
   -2.7963   -0.4689    0.9317 H   0  0  0  0  0  0  0  0  0  0  0  0
   -3.1891   -0.9499   -0.7205 H   0  0  0  0  0  0  0  0  0  0  0  0
   -0.8528    0.8727    0.0750 H   0  0  0  0  0  0  0  0  0  0  0  0
   -1.2415    0.3909   -1.5706 H   0  0  0  0  0  0  0  0  0  0  0  0
   -0.8880   -2.0269   -0.9469 H   0  0  0  0  0  0  0  0  0  0  0  0
   -0.4775   -1.5502    0.6943 H   0  0  0  0  0  0  0  0  0  0  0  0
    3.5449   -1.0500   -0.3470 H   0  0  0  0  0  0  0  0  0  0  0  0
    3.0728    0.5418   -1.0216 H   0  0  0  0  0  0  0  0  0  0  0  0
    3.6264   -0.0398    1.9353 H   0  0  0  0  0  0  0  0  0  0  0  0
    3.1624    1.5227    1.2728 H   0  0  0  0  0  0  0  0  0  0  0  0
    4.7316    0.8095    0.8280 H   0  0  0  0  0  0  0  0  0  0  0  0
  1  2  1  0
  2  3  1  0
  3  4  1  0
  4  5  1  0
  5  6  2  0
  5  7  1  0
  7  8  1  0
  8  9  1  0
  1 10  1  0
  1 11  1  0
  1 12  1  0
  2 13  1  0
  2 14  1  0
  3 15  1  0
  3 16  1  0
  4 17  1  0
  4 18  1  0
  8 19  1  0
  8 20  1  0
  9 21  1  0
  9 22  1  0
  9 23  1  0
M  END
>  <Energy>  (7) 
-12.282232089941548

>  <Real charge>  (7) 
0

>  <Mult>  (7) 
1

$$$$
mol_75 81
     RDKit          3D

 23 22  0  0  0  0  0  0  0  0999 V2000
   -2.8403   -1.1130   -0.5529 C   0  0  0  0  0  0  0  0  0  0  0  0
   -1.9212   -0.3964    0.4240 C   0  0  0  0  0  0  0  0  0  0  0  0
   -1.3701    0.8992   -0.1755 C   0  0  0  0  0  0  0  0  0  0  0  0
   -0.4849    1.6653    0.8035 C   0  0  0  0  0  0  0  0  0  0  0  0
    0.7973    0.9354    1.1153 C   0  0  0  0  0  0  0  0  0  0  0  0
    1.0555    0.4412    2.2041 O   0  0  0  0  0  0  0  0  0  0  0  0
    1.6070    0.9088    0.0213 O   0  0  0  0  0  0  0  0  0  0  0  0
    2.8550    0.2204    0.1859 C   0  0  0  0  0  0  0  0  0  0  0  0
    2.6734   -1.2607   -0.0891 C   0  0  0  0  0  0  0  0  0  0  0  0
   -3.2234   -2.0356   -0.1056 H   0  0  0  0  0  0  0  0  0  0  0  0
   -2.3067   -1.3769   -1.4716 H   0  0  0  0  0  0  0  0  0  0  0  0
   -3.6958   -0.4845   -0.8202 H   0  0  0  0  0  0  0  0  0  0  0  0
   -2.4763   -0.1749    1.3429 H   0  0  0  0  0  0  0  0  0  0  0  0
   -1.0991   -1.0686    0.6947 H   0  0  0  0  0  0  0  0  0  0  0  0
   -2.2073    1.5456   -0.4658 H   0  0  0  0  0  0  0  0  0  0  0  0
   -0.8116    0.6703   -1.0912 H   0  0  0  0  0  0  0  0  0  0  0  0
   -0.2243    2.6489    0.3957 H   0  0  0  0  0  0  0  0  0  0  0  0
   -1.0176    1.8486    1.7438 H   0  0  0  0  0  0  0  0  0  0  0  0
    3.5539    0.6468   -0.5411 H   0  0  0  0  0  0  0  0  0  0  0  0
    3.2793    0.3954    1.1812 H   0  0  0  0  0  0  0  0  0  0  0  0
    1.9775   -1.7108    0.6259 H   0  0  0  0  0  0  0  0  0  0  0  0
    3.6297   -1.7873   -0.0248 H   0  0  0  0  0  0  0  0  0  0  0  0
    2.2498   -1.4171   -1.0867 H   0  0  0  0  0  0  0  0  0  0  0  0
  1  2  1  0
  2  3  1  0
  3  4  1  0
  4  5  1  0
  5  6  2  0
  5  7  1  0
  7  8  1  0
  8  9  1  0
  1 10  1  0
  1 11  1  0
  1 12  1  0
  2 13  1  0
  2 14  1  0
  3 15  1  0
  3 16  1  0
  4 17  1  0
  4 18  1  0
  8 19  1  0
  8 20  1  0
  9 21  1  0
  9 22  1  0
  9 23  1  0
M  END
>  <Energy>  (8) 
-12.180951675908505

>  <Real charge>  (8) 
0

>  <Mult>  (8) 
1

$$$$
mol_75 266
     RDKit          3D

 23 22  0  0  0  0  0  0  0  0999 V2000
   -3.4333    1.0056   -0.4152 C   0  0  0  0  0  0  0  0  0  0  0  0
   -3.0026   -0.0003    0.6411 C   0  0  0  0  0  0  0  0  0  0  0  0
   -1.7372   -0.7738    0.2665 C   0  0  0  0  0  0  0  0  0  0  0  0
   -0.4939    0.1099    0.1705 C   0  0  0  0  0  0  0  0  0  0  0  0
    0.7563   -0.7031   -0.0754 C   0  0  0  0  0  0  0  0  0  0  0  0
    0.7951   -1.9102   -0.2647 O   0  0  0  0  0  0  0  0  0  0  0  0
    1.8414    0.1231   -0.0628 O   0  0  0  0  0  0  0  0  0  0  0  0
    3.0888   -0.5432   -0.2921 C   0  0  0  0  0  0  0  0  0  0  0  0
    4.1945    0.4934   -0.2481 C   0  0  0  0  0  0  0  0  0  0  0  0
   -2.7042    1.8143   -0.5199 H   0  0  0  0  0  0  0  0  0  0  0  0
   -4.3905    1.4572   -0.1353 H   0  0  0  0  0  0  0  0  0  0  0  0
   -3.5586    0.5230   -1.3896 H   0  0  0  0  0  0  0  0  0  0  0  0
   -3.8174   -0.7188    0.7908 H   0  0  0  0  0  0  0  0  0  0  0  0
   -2.8556    0.5153    1.5973 H   0  0  0  0  0  0  0  0  0  0  0  0
   -1.8930   -1.2999   -0.6837 H   0  0  0  0  0  0  0  0  0  0  0  0
   -1.5712   -1.5501    1.0243 H   0  0  0  0  0  0  0  0  0  0  0  0
   -0.5954    0.8215   -0.6553 H   0  0  0  0  0  0  0  0  0  0  0  0
   -0.3626    0.6622    1.1077 H   0  0  0  0  0  0  0  0  0  0  0  0
    3.0744   -1.0270   -1.2752 H   0  0  0  0  0  0  0  0  0  0  0  0
    3.2553   -1.2949    0.4876 H   0  0  0  0  0  0  0  0  0  0  0  0
    4.0308    1.2642   -1.0085 H   0  0  0  0  0  0  0  0  0  0  0  0
    4.2084    1.0011    0.7220 H   0  0  0  0  0  0  0  0  0  0  0  0
    5.1704    0.0305   -0.4186 H   0  0  0  0  0  0  0  0  0  0  0  0
  1  2  1  0
  2  3  1  0
  3  4  1  0
  4  5  1  0
  5  6  2  0
  5  7  1  0
  7  8  1  0
  8  9  1  0
  1 10  1  0
  1 11  1  0
  1 12  1  0
  2 13  1  0
  2 14  1  0
  3 15  1  0
  3 16  1  0
  4 17  1  0
  4 18  1  0
  8 19  1  0
  8 20  1  0
  9 21  1  0
  9 22  1  0
  9 23  1  0
M  END
>  <Energy>  (9) 
-12.104965634327767

>  <Real charge>  (9) 
0

>  <Mult>  (9) 
1

$$$$
mol_75 44
     RDKit          3D

 23 22  0  0  0  0  0  0  0  0999 V2000
   -3.4448    0.6151    0.4503 C   0  0  0  0  0  0  0  0  0  0  0  0
   -2.2202   -0.2856    0.4048 C   0  0  0  0  0  0  0  0  0  0  0  0
   -1.5182   -0.2057   -0.9526 C   0  0  0  0  0  0  0  0  0  0  0  0
   -0.3155   -1.1403   -1.0430 C   0  0  0  0  0  0  0  0  0  0  0  0
    0.8153   -0.7155   -0.1401 C   0  0  0  0  0  0  0  0  0  0  0  0
    1.1539   -1.3249    0.8650 O   0  0  0  0  0  0  0  0  0  0  0  0
    1.3945    0.4240   -0.6082 O   0  0  0  0  0  0  0  0  0  0  0  0
    2.4822    0.9378    0.1740 C   0  0  0  0  0  0  0  0  0  0  0  0
    3.7854    0.2878   -0.2508 C   0  0  0  0  0  0  0  0  0  0  0  0
   -3.1684    1.6613    0.2842 H   0  0  0  0  0  0  0  0  0  0  0  0
   -3.9318    0.5434    1.4278 H   0  0  0  0  0  0  0  0  0  0  0  0
   -4.1732    0.3262   -0.3140 H   0  0  0  0  0  0  0  0  0  0  0  0
   -2.5270   -1.3187    0.6051 H   0  0  0  0  0  0  0  0  0  0  0  0
   -1.5327    0.0104    1.2051 H   0  0  0  0  0  0  0  0  0  0  0  0
   -2.2300   -0.4783   -1.7413 H   0  0  0  0  0  0  0  0  0  0  0  0
   -1.2092    0.8288   -1.1450 H   0  0  0  0  0  0  0  0  0  0  0  0
   -0.6011   -2.1661   -0.7831 H   0  0  0  0  0  0  0  0  0  0  0  0
    0.0662   -1.1747   -2.0701 H   0  0  0  0  0  0  0  0  0  0  0  0
    2.5300    2.0154   -0.0140 H   0  0  0  0  0  0  0  0  0  0  0  0
    2.2988    0.8067    1.2467 H   0  0  0  0  0  0  0  0  0  0  0  0
    3.9540    0.4298   -1.3234 H   0  0  0  0  0  0  0  0  0  0  0  0
    4.6290    0.7148    0.2987 H   0  0  0  0  0  0  0  0  0  0  0  0
    3.7627   -0.7919   -0.0724 H   0  0  0  0  0  0  0  0  0  0  0  0
  1  2  1  0
  2  3  1  0
  3  4  1  0
  4  5  1  0
  5  6  2  0
  5  7  1  0
  7  8  1  0
  8  9  1  0
  1 10  1  0
  1 11  1  0
  1 12  1  0
  2 13  1  0
  2 14  1  0
  3 15  1  0
  3 16  1  0
  4 17  1  0
  4 18  1  0
  8 19  1  0
  8 20  1  0
  9 21  1  0
  9 22  1  0
  9 23  1  0
M  END
>  <Energy>  (10) 
-12.011699050110092

>  <Real charge>  (10) 
0

>  <Mult>  (10) 
1

$$$$
mol_75 194
     RDKit          3D

 23 22  0  0  0  0  0  0  0  0999 V2000
   -2.7597   -0.7113   -0.7695 C   0  0  0  0  0  0  0  0  0  0  0  0
   -2.4804   -0.4546    0.7033 C   0  0  0  0  0  0  0  0  0  0  0  0
   -1.9168    0.9417    0.9880 C   0  0  0  0  0  0  0  0  0  0  0  0
   -0.5563    1.2280    0.3525 C   0  0  0  0  0  0  0  0  0  0  0  0
    0.5547    0.3777    0.9240 C   0  0  0  0  0  0  0  0  0  0  0  0
    0.5413   -0.1595    2.0223 O   0  0  0  0  0  0  0  0  0  0  0  0
    1.5935    0.3307    0.0424 O   0  0  0  0  0  0  0  0  0  0  0  0
    2.7131   -0.4397    0.4953 C   0  0  0  0  0  0  0  0  0  0  0  0
    3.7758   -0.4114   -0.5858 C   0  0  0  0  0  0  0  0  0  0  0  0
   -1.8353   -0.7466   -1.3532 H   0  0  0  0  0  0  0  0  0  0  0  0
   -3.4067    0.0655   -1.1889 H   0  0  0  0  0  0  0  0  0  0  0  0
   -3.2643   -1.6751   -0.8929 H   0  0  0  0  0  0  0  0  0  0  0  0
   -3.4202   -0.5643    1.2580 H   0  0  0  0  0  0  0  0  0  0  0  0
   -1.8026   -1.2266    1.0837 H   0  0  0  0  0  0  0  0  0  0  0  0
   -2.6334    1.6924    0.6322 H   0  0  0  0  0  0  0  0  0  0  0  0
   -1.8456    1.0712    2.0751 H   0  0  0  0  0  0  0  0  0  0  0  0
   -0.6067    1.0799   -0.7309 H   0  0  0  0  0  0  0  0  0  0  0  0
   -0.2865    2.2747    0.5342 H   0  0  0  0  0  0  0  0  0  0  0  0
    3.1125   -0.0040    1.4180 H   0  0  0  0  0  0  0  0  0  0  0  0
    2.4006   -1.4737    0.6796 H   0  0  0  0  0  0  0  0  0  0  0  0
    3.3848   -0.8246   -1.5215 H   0  0  0  0  0  0  0  0  0  0  0  0
    4.6544   -0.9885   -0.2846 H   0  0  0  0  0  0  0  0  0  0  0  0
    4.0839    0.6181   -0.7966 H   0  0  0  0  0  0  0  0  0  0  0  0
  1  2  1  0
  2  3  1  0
  3  4  1  0
  4  5  1  0
  5  6  2  0
  5  7  1  0
  7  8  1  0
  8  9  1  0
  1 10  1  0
  1 11  1  0
  1 12  1  0
  2 13  1  0
  2 14  1  0
  3 15  1  0
  3 16  1  0
  4 17  1  0
  4 18  1  0
  8 19  1  0
  8 20  1  0
  9 21  1  0
  9 22  1  0
  9 23  1  0
M  END
>  <Energy>  (11) 
-11.999335938564437

>  <Real charge>  (11) 
0

>  <Mult>  (11) 
1

$$$$
mol_75 113
     RDKit          3D

 23 22  0  0  0  0  0  0  0  0999 V2000
   -3.3383    1.1565   -0.8812 C   0  0  0  0  0  0  0  0  0  0  0  0
   -2.6127    0.5002    0.2826 C   0  0  0  0  0  0  0  0  0  0  0  0
   -1.2022    0.0654   -0.1108 C   0  0  0  0  0  0  0  0  0  0  0  0
   -0.4780   -0.5915    1.0582 C   0  0  0  0  0  0  0  0  0  0  0  0
    0.8988   -1.0412    0.6444 C   0  0  0  0  0  0  0  0  0  0  0  0
    1.1734   -2.1839    0.3056 O   0  0  0  0  0  0  0  0  0  0  0  0
    1.7677    0.0064    0.6798 O   0  0  0  0  0  0  0  0  0  0  0  0
    3.1155   -0.2878    0.2851 C   0  0  0  0  0  0  0  0  0  0  0  0
    3.2589   -0.1572   -1.2197 C   0  0  0  0  0  0  0  0  0  0  0  0
   -3.4315    0.4657   -1.7252 H   0  0  0  0  0  0  0  0  0  0  0  0
   -2.8039    2.0483   -1.2240 H   0  0  0  0  0  0  0  0  0  0  0  0
   -4.3452    1.4597   -0.5776 H   0  0  0  0  0  0  0  0  0  0  0  0
   -2.5648    1.2057    1.1203 H   0  0  0  0  0  0  0  0  0  0  0  0
   -3.1893   -0.3682    0.6219 H   0  0  0  0  0  0  0  0  0  0  0  0
   -0.6307    0.9344   -0.4600 H   0  0  0  0  0  0  0  0  0  0  0  0
   -1.2506   -0.6348   -0.9543 H   0  0  0  0  0  0  0  0  0  0  0  0
   -1.0281   -1.4700    1.4150 H   0  0  0  0  0  0  0  0  0  0  0  0
   -0.3901    0.0903    1.9120 H   0  0  0  0  0  0  0  0  0  0  0  0
    3.4261   -1.2795    0.6336 H   0  0  0  0  0  0  0  0  0  0  0  0
    3.7612    0.4441    0.7813 H   0  0  0  0  0  0  0  0  0  0  0  0
    4.2957   -0.3217   -1.5262 H   0  0  0  0  0  0  0  0  0  0  0  0
    2.6218   -0.8797   -1.7394 H   0  0  0  0  0  0  0  0  0  0  0  0
    2.9462    0.8387   -1.5505 H   0  0  0  0  0  0  0  0  0  0  0  0
  1  2  1  0
  2  3  1  0
  3  4  1  0
  4  5  1  0
  5  6  2  0
  5  7  1  0
  7  8  1  0
  8  9  1  0
  1 10  1  0
  1 11  1  0
  1 12  1  0
  2 13  1  0
  2 14  1  0
  3 15  1  0
  3 16  1  0
  4 17  1  0
  4 18  1  0
  8 19  1  0
  8 20  1  0
  9 21  1  0
  9 22  1  0
  9 23  1  0
M  END
>  <Energy>  (12) 
-11.90327633765985

>  <Real charge>  (12) 
0

>  <Mult>  (12) 
1

$$$$
