mol_579 175
     RDKit          3D

 46 49  0  0  0  0  0  0  0  0999 V2000
    3.1611   -0.2931    1.9042 C   0  0  0  0  0  0  0  0  0  0  0  0
    2.7582    0.2107    0.5185 C   0  0  0  0  0  0  0  0  0  0  0  0
    2.0356    1.5563    0.5913 C   0  0  0  0  0  0  0  0  0  0  0  0
    0.5877    1.3845    0.9835 C   0  0  0  0  0  0  0  0  0  0  0  0
    0.1196    2.0450    1.9070 O   0  0  0  0  0  0  0  0  0  0  0  0
   -0.2374    0.4294    0.1171 C   0  0  0  0  0  0  0  0  0  0  0  0
    0.4743   -0.9440    0.0953 C   0  0  0  0  0  0  0  0  0  0  0  0
   -0.2680   -1.9191   -0.8320 C   0  0  0  0  0  0  0  0  0  0  0  0
   -1.7255   -2.0820   -0.4262 C   0  0  0  0  0  0  0  0  0  0  0  0
   -2.4316   -0.7489   -0.3621 C   0  0  0  0  0  0  0  0  0  0  0  0
   -3.6006   -0.5832   -1.0064 C   0  0  0  0  0  0  0  0  0  0  0  0
   -4.4014    0.6547   -0.8634 C   0  0  0  0  0  0  0  0  0  0  0  0
   -5.4384    0.7801   -1.5094 O   0  0  0  0  0  0  0  0  0  0  0  0
   -3.9443    1.6775    0.1420 C   0  0  0  0  0  0  0  0  0  0  0  0
   -2.4238    1.7214    0.1931 C   0  0  0  0  0  0  0  0  0  0  0  0
   -1.7646    0.3412    0.4946 C   0  0  0  0  0  0  0  0  0  0  0  0
   -2.0066   -0.0383    1.9748 C   0  0  0  0  0  0  0  0  0  0  0  0
    1.9730   -0.8610   -0.2758 C   0  0  0  0  0  0  0  0  0  0  0  0
    2.2890   -0.5374   -1.7432 C   0  0  0  0  0  0  0  0  0  0  0  0
    3.7796   -0.2195   -1.7430 C   0  0  0  0  0  0  0  0  0  0  0  0
    3.9767    0.3871   -0.3776 C   0  0  0  0  0  0  0  0  0  0  0  0
    5.0025    0.9635   -0.0388 O   0  0  0  0  0  0  0  0  0  0  0  0
    3.7802    0.4438    2.4285 H   0  0  0  0  0  0  0  0  0  0  0  0
    2.2850   -0.4996    2.5275 H   0  0  0  0  0  0  0  0  0  0  0  0
    3.7524   -1.2134    1.8357 H   0  0  0  0  0  0  0  0  0  0  0  0
    2.0511    2.0859   -0.3694 H   0  0  0  0  0  0  0  0  0  0  0  0
    2.5248    2.2198    1.3149 H   0  0  0  0  0  0  0  0  0  0  0  0
   -0.1850    0.8476   -0.8991 H   0  0  0  0  0  0  0  0  0  0  0  0
    0.4388   -1.3586    1.1120 H   0  0  0  0  0  0  0  0  0  0  0  0
   -0.2290   -1.5649   -1.8697 H   0  0  0  0  0  0  0  0  0  0  0  0
    0.2224   -2.8999   -0.8106 H   0  0  0  0  0  0  0  0  0  0  0  0
   -2.2166   -2.7590   -1.1360 H   0  0  0  0  0  0  0  0  0  0  0  0
   -1.7845   -2.5690    0.5547 H   0  0  0  0  0  0  0  0  0  0  0  0
   -4.0560   -1.3587   -1.6130 H   0  0  0  0  0  0  0  0  0  0  0  0
   -4.3223    2.6590   -0.1647 H   0  0  0  0  0  0  0  0  0  0  0  0
   -4.3778    1.4335    1.1169 H   0  0  0  0  0  0  0  0  0  0  0  0
   -2.0650    2.0929   -0.7772 H   0  0  0  0  0  0  0  0  0  0  0  0
   -2.1256    2.4692    0.9361 H   0  0  0  0  0  0  0  0  0  0  0  0
   -1.4081   -0.9004    2.2851 H   0  0  0  0  0  0  0  0  0  0  0  0
   -1.7740    0.7837    2.6576 H   0  0  0  0  0  0  0  0  0  0  0  0
   -3.0565   -0.3001    2.1548 H   0  0  0  0  0  0  0  0  0  0  0  0
    2.4139   -1.8491   -0.0707 H   0  0  0  0  0  0  0  0  0  0  0  0
    2.0712   -1.3753   -2.4128 H   0  0  0  0  0  0  0  0  0  0  0  0
    1.7202    0.3296   -2.0967 H   0  0  0  0  0  0  0  0  0  0  0  0
    4.0433    0.4872   -2.5327 H   0  0  0  0  0  0  0  0  0  0  0  0
    4.3820   -1.1293   -1.8173 H   0  0  0  0  0  0  0  0  0  0  0  0
  1  2  1  0
  2  3  1  0
  3  4  1  0
  4  5  2  0
  4  6  1  0
  6  7  1  0
  7  8  1  0
  8  9  1  0
  9 10  1  0
 10 11  2  0
 11 12  1  0
 12 13  2  0
 12 14  1  0
 14 15  1  0
 15 16  1  0
 16 17  1  0
  7 18  1  0
 18 19  1  0
 19 20  1  0
 20 21  1  0
 21 22  2  0
 16  6  1  0
 16 10  1  0
 18  2  1  0
 21  2  1  0
  1 23  1  0
  1 24  1  0
  1 25  1  0
  3 26  1  0
  3 27  1  0
  6 28  1  0
  7 29  1  0
  8 30  1  0
  8 31  1  0
  9 32  1  0
  9 33  1  0
 11 34  1  0
 14 35  1  0
 14 36  1  0
 15 37  1  0
 15 38  1  0
 17 39  1  0
 17 40  1  0
 17 41  1  0
 18 42  1  0
 19 43  1  0
 19 44  1  0
 20 45  1  0
 20 46  1  0
M  END
>  <Energy>  (1) 
51.80627007959872

>  <Real charge>  (1) 
0

>  <Mult>  (1) 
1

$$$$
