mol_255 173
     RDKit          3D

 60 63  0  0  0  0  0  0  0  0999 V2000
   -5.8362    0.3183   -1.7978 C   0  0  0  0  0  0  0  0  0  0  0  0
   -5.0739    0.4813   -0.5196 C   0  0  0  0  0  0  0  0  0  0  0  0
   -5.5070    1.0328    0.4818 O   0  0  0  0  0  0  0  0  0  0  0  0
   -3.8297   -0.0530   -0.6477 O   0  0  0  0  0  0  0  0  0  0  0  0
   -2.9743   -0.0666    0.5261 C   0  0  0  0  0  0  0  0  0  0  0  0
   -2.4651    1.3651    0.7903 C   0  0  0  0  0  0  0  0  0  0  0  0
   -1.2595    1.5753   -0.1330 C   0  0  0  0  0  0  0  0  0  0  0  0
   -0.9549    0.2145   -0.7799 C   0  0  0  0  0  0  0  0  0  0  0  0
    0.5375   -0.0790   -1.0473 C   0  0  0  0  0  0  0  0  0  0  0  0
    1.1845    0.9711   -1.9082 C   0  0  0  0  0  0  0  0  0  0  0  0
    2.4531    1.4001   -1.7730 C   0  0  0  0  0  0  0  0  0  0  0  0
    2.9722    2.4626   -2.7125 C   0  0  0  0  0  0  0  0  0  0  0  0
    3.3556    0.8236   -0.7598 C   0  0  0  0  0  0  0  0  0  0  0  0
    4.5486    1.3871   -0.4872 C   0  0  0  0  0  0  0  0  0  0  0  0
    5.4971    0.8235    0.5004 C   0  0  0  0  0  0  0  0  0  0  0  0
    6.5837    1.3730    0.6698 O   0  0  0  0  0  0  0  0  0  0  0  0
    5.1245   -0.4411    1.2227 C   0  0  0  0  0  0  0  0  0  0  0  0
    3.6139   -0.5798    1.3365 C   0  0  0  0  0  0  0  0  0  0  0  0
    2.8703   -0.4460   -0.0233 C   0  0  0  0  0  0  0  0  0  0  0  0
    3.1946   -1.6830   -0.8945 C   0  0  0  0  0  0  0  0  0  0  0  0
    1.3323   -0.3081    0.2565 C   0  0  0  0  0  0  0  0  0  0  0  0
    0.6908   -1.4694    1.0349 C   0  0  0  0  0  0  0  0  0  0  0  0
   -0.7715   -1.1587    1.3720 C   0  0  0  0  0  0  0  0  0  0  0  0
   -1.6518   -0.8289    0.1363 C   0  0  0  0  0  0  0  0  0  0  0  0
   -1.9242   -2.1277   -0.6544 C   0  0  0  0  0  0  0  0  0  0  0  0
   -3.7066   -0.7772    1.6959 C   0  0  0  0  0  0  0  0  0  0  0  0
   -3.7771   -0.0980    3.0393 C   0  0  0  0  0  0  0  0  0  0  0  0
   -4.2245   -1.8884    1.5411 O   0  0  0  0  0  0  0  0  0  0  0  0
   -6.8501    0.7071   -1.6672 H   0  0  0  0  0  0  0  0  0  0  0  0
   -5.3445    0.8797   -2.5960 H   0  0  0  0  0  0  0  0  0  0  0  0
   -5.9030   -0.7414   -2.0570 H   0  0  0  0  0  0  0  0  0  0  0  0
   -2.1338    1.5054    1.8239 H   0  0  0  0  0  0  0  0  0  0  0  0
   -3.2176    2.1345    0.5925 H   0  0  0  0  0  0  0  0  0  0  0  0
   -0.4201    1.9766    0.4429 H   0  0  0  0  0  0  0  0  0  0  0  0
   -1.4932    2.3157   -0.9070 H   0  0  0  0  0  0  0  0  0  0  0  0
   -1.4639    0.2131   -1.7564 H   0  0  0  0  0  0  0  0  0  0  0  0
    0.5616   -1.0040   -1.6388 H   0  0  0  0  0  0  0  0  0  0  0  0
    0.5656    1.3822   -2.7043 H   0  0  0  0  0  0  0  0  0  0  0  0
    3.2120    3.3808   -2.1658 H   0  0  0  0  0  0  0  0  0  0  0  0
    2.2368    2.7295   -3.4800 H   0  0  0  0  0  0  0  0  0  0  0  0
    3.8681    2.1136   -3.2375 H   0  0  0  0  0  0  0  0  0  0  0  0
    4.9154    2.2827   -0.9749 H   0  0  0  0  0  0  0  0  0  0  0  0
    5.5557   -0.4042    2.2294 H   0  0  0  0  0  0  0  0  0  0  0  0
    5.5704   -1.2896    0.6948 H   0  0  0  0  0  0  0  0  0  0  0  0
    3.2480    0.1910    2.0294 H   0  0  0  0  0  0  0  0  0  0  0  0
    3.3981   -1.5479    1.8036 H   0  0  0  0  0  0  0  0  0  0  0  0
    2.9266   -2.6127   -0.3817 H   0  0  0  0  0  0  0  0  0  0  0  0
    4.2626   -1.7413   -1.1331 H   0  0  0  0  0  0  0  0  0  0  0  0
    2.6690   -1.6705   -1.8544 H   0  0  0  0  0  0  0  0  0  0  0  0
    1.2189    0.5858    0.8887 H   0  0  0  0  0  0  0  0  0  0  0  0
    0.7554   -2.4031    0.4666 H   0  0  0  0  0  0  0  0  0  0  0  0
    1.2169   -1.6396    1.9796 H   0  0  0  0  0  0  0  0  0  0  0  0
   -0.7718   -0.3217    2.0798 H   0  0  0  0  0  0  0  0  0  0  0  0
   -1.1946   -2.0120    1.9168 H   0  0  0  0  0  0  0  0  0  0  0  0
   -2.5238   -1.9441   -1.5521 H   0  0  0  0  0  0  0  0  0  0  0  0
   -2.4579   -2.8619   -0.0431 H   0  0  0  0  0  0  0  0  0  0  0  0
   -0.9974   -2.6032   -0.9896 H   0  0  0  0  0  0  0  0  0  0  0  0
   -4.2320    0.8900    2.9407 H   0  0  0  0  0  0  0  0  0  0  0  0
   -4.4013   -0.6926    3.7133 H   0  0  0  0  0  0  0  0  0  0  0  0
   -2.7786   -0.0212    3.4741 H   0  0  0  0  0  0  0  0  0  0  0  0
  1  2  1  0
  2  3  2  0
  2  4  1  0
  4  5  1  0
  5  6  1  0
  6  7  1  0
  7  8  1  0
  8  9  1  0
  9 10  1  0
 10 11  2  0
 11 12  1  0
 11 13  1  0
 13 14  2  0
 14 15  1  0
 15 16  2  0
 15 17  1  0
 17 18  1  0
 18 19  1  0
 19 20  1  0
 19 21  1  0
 21 22  1  0
 22 23  1  0
 23 24  1  0
 24 25  1  0
  5 26  1  0
 26 27  1  0
 26 28  2  0
 19 13  1  0
 21  9  1  0
 24  5  1  0
 24  8  1  0
  1 29  1  0
  1 30  1  0
  1 31  1  0
  6 32  1  0
  6 33  1  0
  7 34  1  0
  7 35  1  0
  8 36  1  0
  9 37  1  0
 10 38  1  0
 12 39  1  0
 12 40  1  0
 12 41  1  0
 14 42  1  0
 17 43  1  0
 17 44  1  0
 18 45  1  0
 18 46  1  0
 20 47  1  0
 20 48  1  0
 20 49  1  0
 21 50  1  0
 22 51  1  0
 22 52  1  0
 23 53  1  0
 23 54  1  0
 25 55  1  0
 25 56  1  0
 25 57  1  0
 27 58  1  0
 27 59  1  0
 27 60  1  0
M  END
>  <Energy>  (1) 
73.74074386024056

>  <Real charge>  (1) 
0

>  <Mult>  (1) 
1

$$$$
