mol_269 10
     RDKit          3D

 12 12  0  0  0  0  0  0  0  0999 V2000
    2.6024   -1.7994    0.9347 Br  0  0  0  0  0  0  0  0  0  0  0  0
    1.1309   -0.7284    0.3922 C   0  0  0  0  0  0  0  0  0  0  0  0
   -0.1216   -1.3493    0.3311 C   0  0  0  0  0  0  0  0  0  0  0  0
   -1.2528   -0.6245   -0.0602 C   0  0  0  0  0  0  0  0  0  0  0  0
   -2.9051   -1.5595   -0.1104 Br  0  0  0  0  0  0  0  0  0  0  0  0
   -1.1309    0.7284   -0.3922 C   0  0  0  0  0  0  0  0  0  0  0  0
   -2.6024    1.7994   -0.9347 Br  0  0  0  0  0  0  0  0  0  0  0  0
    0.1216    1.3493   -0.3311 C   0  0  0  0  0  0  0  0  0  0  0  0
    1.2528    0.6245    0.0602 C   0  0  0  0  0  0  0  0  0  0  0  0
    2.9051    1.5595    0.1104 Br  0  0  0  0  0  0  0  0  0  0  0  0
   -0.2165   -2.4023    0.5895 H   0  0  0  0  0  0  0  0  0  0  0  0
    0.2165    2.4023   -0.5895 H   0  0  0  0  0  0  0  0  0  0  0  0
  1  2  1  0
  2  3  2  0
  3  4  1  0
  4  5  1  0
  4  6  2  0
  6  7  1  0
  6  8  1  0
  8  9  2  0
  9 10  1  0
  9  2  1  0
  3 11  1  0
  8 12  1  0
M  END
>  <Energy>  (1) 
20.267452565194425

>  <Real charge>  (1) 
0

>  <Mult>  (1) 
1

$$$$
