mol_1050 13
     RDKit          3D

 12 12  0  0  0  0  0  0  0  0999 V2000
   -1.5726    2.6142   -0.0292 Cl  0  0  0  0  0  0  0  0  0  0  0  0
   -0.6773    1.1365   -0.0126 C   0  0  0  0  0  0  0  0  0  0  0  0
   -1.4037   -0.0590   -0.0184 C   0  0  0  0  0  0  0  0  0  0  0  0
   -0.7394   -1.2867   -0.0057 C   0  0  0  0  0  0  0  0  0  0  0  0
    0.6534   -1.3240    0.0129 C   0  0  0  0  0  0  0  0  0  0  0  0
    1.3838   -0.1343    0.0188 C   0  0  0  0  0  0  0  0  0  0  0  0
    0.7215    1.0984    0.0061 C   0  0  0  0  0  0  0  0  0  0  0  0
    1.7919    2.6672    0.0153 Br  0  0  0  0  0  0  0  0  0  0  0  0
   -2.4910   -0.0404   -0.0329 H   0  0  0  0  0  0  0  0  0  0  0  0
   -1.3093   -2.2131   -0.0104 H   0  0  0  0  0  0  0  0  0  0  0  0
    1.1722   -2.2800    0.0228 H   0  0  0  0  0  0  0  0  0  0  0  0
    2.4704   -0.1787    0.0334 H   0  0  0  0  0  0  0  0  0  0  0  0
  1  2  1  0
  2  3  2  0
  3  4  1  0
  4  5  2  0
  5  6  1  0
  6  7  2  0
  7  8  1  0
  7  2  1  0
  3  9  1  0
  4 10  1  0
  5 11  1  0
  6 12  1  0
M  END
>  <Energy>  (1) 
24.02589331419175

>  <Real charge>  (1) 
0

>  <Mult>  (1) 
1

$$$$
