mol_996 440
     RDKit          3D

 49 52  0  0  0  0  0  0  0  0999 V2000
   -1.9623    0.3536    2.5172 C   0  0  0  0  0  0  0  0  0  0  0  0
   -2.0590    0.3776    0.9788 C   0  0  0  0  0  0  0  0  0  0  0  0
   -1.3129    1.6209    0.4269 C   0  0  0  0  0  0  0  0  0  0  0  0
    0.2103    1.5217    0.5261 C   0  0  0  0  0  0  0  0  0  0  0  0
    0.7597    0.2656   -0.1774 C   0  0  0  0  0  0  0  0  0  0  0  0
    0.0688   -0.9957    0.3978 C   0  0  0  0  0  0  0  0  0  0  0  0
    0.5817   -2.2562   -0.3144 C   0  0  0  0  0  0  0  0  0  0  0  0
    2.0894   -2.4023   -0.1534 C   0  0  0  0  0  0  0  0  0  0  0  0
    2.8287   -1.1726   -0.6198 C   0  0  0  0  0  0  0  0  0  0  0  0
    3.8963   -1.3038   -1.4273 C   0  0  0  0  0  0  0  0  0  0  0  0
    4.7307   -0.1364   -1.7954 C   0  0  0  0  0  0  0  0  0  0  0  0
    5.6577   -0.2832   -2.5877 O   0  0  0  0  0  0  0  0  0  0  0  0
    4.4474    1.1746   -1.1120 C   0  0  0  0  0  0  0  0  0  0  0  0
    2.9487    1.3433   -0.9038 C   0  0  0  0  0  0  0  0  0  0  0  0
    2.3226    0.1706   -0.1132 C   0  0  0  0  0  0  0  0  0  0  0  0
    2.7698    0.3007    1.2364 O   0  0  0  0  0  0  0  0  0  0  0  0
   -1.4717   -0.9174    0.3633 C   0  0  0  0  0  0  0  0  0  0  0  0
   -2.1122   -0.9950   -1.0350 C   0  0  0  0  0  0  0  0  0  0  0  0
   -3.4216   -0.1975   -0.9632 C   0  0  0  0  0  0  0  0  0  0  0  0
   -3.5359    0.2955    0.4862 C   0  0  0  0  0  0  0  0  0  0  0  0
   -4.2404   -0.7085    1.2228 O   0  0  0  0  0  0  0  0  0  0  0  0
   -4.2837    1.5583    0.5896 C   0  0  0  0  0  0  0  0  0  0  0  0
   -4.9029    2.5839    0.6781 C   0  0  0  0  0  0  0  0  0  0  0  0
   -0.9248    0.3610    2.8643 H   0  0  0  0  0  0  0  0  0  0  0  0
   -2.4619    1.2253    2.9537 H   0  0  0  0  0  0  0  0  0  0  0  0
   -2.4279   -0.5425    2.9415 H   0  0  0  0  0  0  0  0  0  0  0  0
   -1.5676    1.7903   -0.6266 H   0  0  0  0  0  0  0  0  0  0  0  0
   -1.6382    2.5216    0.9629 H   0  0  0  0  0  0  0  0  0  0  0  0
    0.6300    2.4249    0.0701 H   0  0  0  0  0  0  0  0  0  0  0  0
    0.5158    1.5368    1.5781 H   0  0  0  0  0  0  0  0  0  0  0  0
    0.4874    0.3371   -1.2400 H   0  0  0  0  0  0  0  0  0  0  0  0
    0.3515   -1.0823    1.4562 H   0  0  0  0  0  0  0  0  0  0  0  0
    0.0908   -3.1450    0.1000 H   0  0  0  0  0  0  0  0  0  0  0  0
    0.3341   -2.2234   -1.3827 H   0  0  0  0  0  0  0  0  0  0  0  0
    2.3289   -2.5803    0.9024 H   0  0  0  0  0  0  0  0  0  0  0  0
    2.4177   -3.2950   -0.6998 H   0  0  0  0  0  0  0  0  0  0  0  0
    4.2464   -2.2608   -1.7978 H   0  0  0  0  0  0  0  0  0  0  0  0
    4.8190    1.9876   -1.7451 H   0  0  0  0  0  0  0  0  0  0  0  0
    4.9923    1.2004   -0.1624 H   0  0  0  0  0  0  0  0  0  0  0  0
    2.4655    1.4315   -1.8860 H   0  0  0  0  0  0  0  0  0  0  0  0
    2.7966    2.2907   -0.3737 H   0  0  0  0  0  0  0  0  0  0  0  0
    2.4315   -0.4503    1.7500 H   0  0  0  0  0  0  0  0  0  0  0  0
   -1.8492   -1.7805    0.9325 H   0  0  0  0  0  0  0  0  0  0  0  0
   -2.3052   -2.0371   -1.3136 H   0  0  0  0  0  0  0  0  0  0  0  0
   -1.4723   -0.5692   -1.8143 H   0  0  0  0  0  0  0  0  0  0  0  0
   -4.2690   -0.8289   -1.2548 H   0  0  0  0  0  0  0  0  0  0  0  0
   -3.3736    0.6338   -1.6774 H   0  0  0  0  0  0  0  0  0  0  0  0
   -5.1773   -0.6382    0.9713 H   0  0  0  0  0  0  0  0  0  0  0  0
   -5.4497    3.4949    0.7623 H   0  0  0  0  0  0  0  0  0  0  0  0
  1  2  1  0
  2  3  1  0
  3  4  1  0
  4  5  1  0
  5  6  1  0
  6  7  1  0
  7  8  1  0
  8  9  1  0
  9 10  2  0
 10 11  1  0
 11 12  2  0
 11 13  1  0
 13 14  1  0
 14 15  1  0
 15 16  1  0
  6 17  1  0
 17 18  1  0
 18 19  1  0
 19 20  1  0
 20 21  1  0
 20 22  1  0
 22 23  3  0
 15  5  1  0
 15  9  1  0
 17  2  1  0
 20  2  1  0
  1 24  1  0
  1 25  1  0
  1 26  1  0
  3 27  1  0
  3 28  1  0
  4 29  1  0
  4 30  1  0
  5 31  1  0
  6 32  1  0
  7 33  1  0
  7 34  1  0
  8 35  1  0
  8 36  1  0
 10 37  1  0
 13 38  1  0
 13 39  1  0
 14 40  1  0
 14 41  1  0
 16 42  1  0
 17 43  1  0
 18 44  1  0
 18 45  1  0
 19 46  1  0
 19 47  1  0
 21 48  1  0
 23 49  1  0
M  END
>  <Energy>  (1) 
50.85826475305814

>  <Real charge>  (1) 
0

>  <Mult>  (1) 
1

$$$$
mol_996 84
     RDKit          3D

 49 52  0  0  0  0  0  0  0  0999 V2000
   -2.0154   -1.2995   -2.1247 C   0  0  0  0  0  0  0  0  0  0  0  0
   -2.0382   -0.1857   -1.0590 C   0  0  0  0  0  0  0  0  0  0  0  0
   -1.1095    0.9779   -1.4956 C   0  0  0  0  0  0  0  0  0  0  0  0
    0.3799    0.6417   -1.4078 C   0  0  0  0  0  0  0  0  0  0  0  0
    0.7939    0.1926    0.0070 C   0  0  0  0  0  0  0  0  0  0  0  0
   -0.0863   -1.0018    0.4534 C   0  0  0  0  0  0  0  0  0  0  0  0
    0.2814   -1.4331    1.8821 C   0  0  0  0  0  0  0  0  0  0  0  0
    1.7527   -1.8140    1.9823 C   0  0  0  0  0  0  0  0  0  0  0  0
    2.6526   -0.7055    1.4949 C   0  0  0  0  0  0  0  0  0  0  0  0
    3.7032   -0.3163    2.2387 C   0  0  0  0  0  0  0  0  0  0  0  0
    4.7010    0.6372    1.7037 C   0  0  0  0  0  0  0  0  0  0  0  0
    5.5953    1.0559    2.4336 O   0  0  0  0  0  0  0  0  0  0  0  0
    4.6168    0.9890    0.2416 C   0  0  0  0  0  0  0  0  0  0  0  0
    3.1601    1.1361   -0.1744 C   0  0  0  0  0  0  0  0  0  0  0  0
    2.3234   -0.1295    0.1274 C   0  0  0  0  0  0  0  0  0  0  0  0
    2.6874   -1.1506   -0.8015 O   0  0  0  0  0  0  0  0  0  0  0  0
   -1.6001   -0.7296    0.3240 C   0  0  0  0  0  0  0  0  0  0  0  0
   -2.1812    0.2842    1.3275 C   0  0  0  0  0  0  0  0  0  0  0  0
   -3.3775    0.9517    0.6361 C   0  0  0  0  0  0  0  0  0  0  0  0
   -3.4894    0.2905   -0.7448 C   0  0  0  0  0  0  0  0  0  0  0  0
   -4.3556   -0.8394   -0.6079 O   0  0  0  0  0  0  0  0  0  0  0  0
   -4.0641    1.1959   -1.7522 C   0  0  0  0  0  0  0  0  0  0  0  0
   -4.5440    1.9293   -2.5739 C   0  0  0  0  0  0  0  0  0  0  0  0
   -2.6187   -2.1632   -1.8252 H   0  0  0  0  0  0  0  0  0  0  0  0
   -2.4097   -0.9346   -3.0794 H   0  0  0  0  0  0  0  0  0  0  0  0
   -1.0038   -1.6736   -2.3075 H   0  0  0  0  0  0  0  0  0  0  0  0
   -1.3387    1.2732   -2.5274 H   0  0  0  0  0  0  0  0  0  0  0  0
   -1.2877    1.8692   -0.8814 H   0  0  0  0  0  0  0  0  0  0  0  0
    0.6245   -0.1294   -2.1457 H   0  0  0  0  0  0  0  0  0  0  0  0
    0.9400    1.5372   -1.6982 H   0  0  0  0  0  0  0  0  0  0  0  0
    0.5900    1.0316    0.6878 H   0  0  0  0  0  0  0  0  0  0  0  0
    0.1401   -1.8485   -0.2104 H   0  0  0  0  0  0  0  0  0  0  0  0
   -0.3316   -2.2917    2.1817 H   0  0  0  0  0  0  0  0  0  0  0  0
    0.0706   -0.6262    2.5948 H   0  0  0  0  0  0  0  0  0  0  0  0
    1.9401   -2.7122    1.3804 H   0  0  0  0  0  0  0  0  0  0  0  0
    1.9794   -2.0834    3.0211 H   0  0  0  0  0  0  0  0  0  0  0  0
    3.9234   -0.7282    3.2168 H   0  0  0  0  0  0  0  0  0  0  0  0
    5.1256    0.2113   -0.3378 H   0  0  0  0  0  0  0  0  0  0  0  0
    5.1389    1.9380    0.0780 H   0  0  0  0  0  0  0  0  0  0  0  0
    2.7321    1.9981    0.3547 H   0  0  0  0  0  0  0  0  0  0  0  0
    3.1425    1.3658   -1.2461 H   0  0  0  0  0  0  0  0  0  0  0  0
    2.6284   -0.7880   -1.7004 H   0  0  0  0  0  0  0  0  0  0  0  0
   -2.1144   -1.6855    0.5058 H   0  0  0  0  0  0  0  0  0  0  0  0
   -2.4949   -0.2203    2.2482 H   0  0  0  0  0  0  0  0  0  0  0  0
   -1.4557    1.0521    1.6146 H   0  0  0  0  0  0  0  0  0  0  0  0
   -3.1909    2.0302    0.5615 H   0  0  0  0  0  0  0  0  0  0  0  0
   -4.2863    0.8191    1.2346 H   0  0  0  0  0  0  0  0  0  0  0  0
   -5.2608   -0.4940   -0.5238 H   0  0  0  0  0  0  0  0  0  0  0  0
   -4.9689    2.5759   -3.3070 H   0  0  0  0  0  0  0  0  0  0  0  0
  1  2  1  0
  2  3  1  0
  3  4  1  0
  4  5  1  0
  5  6  1  0
  6  7  1  0
  7  8  1  0
  8  9  1  0
  9 10  2  0
 10 11  1  0
 11 12  2  0
 11 13  1  0
 13 14  1  0
 14 15  1  0
 15 16  1  0
  6 17  1  0
 17 18  1  0
 18 19  1  0
 19 20  1  0
 20 21  1  0
 20 22  1  0
 22 23  3  0
 15  5  1  0
 15  9  1  0
 17  2  1  0
 20  2  1  0
  1 24  1  0
  1 25  1  0
  1 26  1  0
  3 27  1  0
  3 28  1  0
  4 29  1  0
  4 30  1  0
  5 31  1  0
  6 32  1  0
  7 33  1  0
  7 34  1  0
  8 35  1  0
  8 36  1  0
 10 37  1  0
 13 38  1  0
 13 39  1  0
 14 40  1  0
 14 41  1  0
 16 42  1  0
 17 43  1  0
 18 44  1  0
 18 45  1  0
 19 46  1  0
 19 47  1  0
 21 48  1  0
 23 49  1  0
M  END
>  <Energy>  (2) 
51.133225364948366

>  <Real charge>  (2) 
0

>  <Mult>  (2) 
1

$$$$
