mol_449 32
     RDKit          3D

 17 17  0  0  0  0  0  0  0  0999 V2000
    3.0956   -0.1820    0.3530 N   0  0  0  0  0  0  0  0  0  0  0  0
    2.0132    0.5188   -0.0662 C   0  0  0  0  0  0  0  0  0  0  0  0
    2.0466    1.7276   -0.2291 O   0  0  0  0  0  0  0  0  0  0  0  0
    0.9359   -0.2815   -0.2915 N   0  0  0  0  0  0  0  0  0  0  0  0
   -0.3270    0.3394   -0.5477 C   0  0  0  0  0  0  0  0  0  0  0  0
   -1.1894   -0.5471   -1.2637 N   0  0  0  0  0  0  0  0  0  0  0  0
   -2.4222   -0.6568   -0.6711 C   0  0  0  0  0  0  0  0  0  0  0  0
   -3.3700   -1.2594   -1.1408 O   0  0  0  0  0  0  0  0  0  0  0  0
   -2.4023    0.0021    0.5094 N   0  0  0  0  0  0  0  0  0  0  0  0
   -1.1821    0.5701    0.7218 C   0  0  0  0  0  0  0  0  0  0  0  0
   -0.8480    1.1315    1.7535 O   0  0  0  0  0  0  0  0  0  0  0  0
    3.2442   -1.0828   -0.0789 H   0  0  0  0  0  0  0  0  0  0  0  0
    3.9314    0.3883    0.4140 H   0  0  0  0  0  0  0  0  0  0  0  0
    0.9104   -1.1052    0.2896 H   0  0  0  0  0  0  0  0  0  0  0  0
   -0.2340    1.2763   -1.1064 H   0  0  0  0  0  0  0  0  0  0  0  0
   -1.0396   -0.8489   -2.2154 H   0  0  0  0  0  0  0  0  0  0  0  0
   -3.1627    0.0096    1.1671 H   0  0  0  0  0  0  0  0  0  0  0  0
  1  2  1  0
  2  3  2  0
  2  4  1  0
  4  5  1  0
  5  6  1  0
  6  7  1  0
  7  8  2  0
  7  9  1  0
  9 10  1  0
 10 11  2  0
 10  5  1  0
  1 12  1  0
  1 13  1  0
  4 14  1  0
  5 15  1  0
  6 16  1  0
  9 17  1  0
M  END
>  <Energy>  (1) 
-198.21368905274238

>  <Real charge>  (1) 
0

>  <Mult>  (1) 
1

$$$$
mol_449 49
     RDKit          3D

 17 17  0  0  0  0  0  0  0  0999 V2000
    3.1257   -0.3175   -0.1768 N   0  0  0  0  0  0  0  0  0  0  0  0
    1.9112   -0.8703    0.0594 C   0  0  0  0  0  0  0  0  0  0  0  0
    1.7373   -2.0783    0.0180 O   0  0  0  0  0  0  0  0  0  0  0  0
    0.9656    0.0435    0.4000 N   0  0  0  0  0  0  0  0  0  0  0  0
   -0.3998   -0.3657    0.4872 C   0  0  0  0  0  0  0  0  0  0  0  0
   -1.1337    0.4874    1.3669 N   0  0  0  0  0  0  0  0  0  0  0  0
   -2.2853    0.9562    0.7856 C   0  0  0  0  0  0  0  0  0  0  0  0
   -3.1409    1.6063    1.3577 O   0  0  0  0  0  0  0  0  0  0  0  0
   -2.3028    0.5865   -0.5151 N   0  0  0  0  0  0  0  0  0  0  0  0
   -1.1892   -0.1356   -0.8229 C   0  0  0  0  0  0  0  0  0  0  0  0
   -0.8835   -0.4981   -1.9487 O   0  0  0  0  0  0  0  0  0  0  0  0
    3.1619    0.5714   -0.6521 H   0  0  0  0  0  0  0  0  0  0  0  0
    3.8058   -0.9915   -0.5090 H   0  0  0  0  0  0  0  0  0  0  0  0
    1.1489    1.0094    0.1871 H   0  0  0  0  0  0  0  0  0  0  0  0
   -0.5156   -1.4048    0.8110 H   0  0  0  0  0  0  0  0  0  0  0  0
   -1.0006    0.5283    2.3671 H   0  0  0  0  0  0  0  0  0  0  0  0
   -3.0049    0.8729   -1.1753 H   0  0  0  0  0  0  0  0  0  0  0  0
  1  2  1  0
  2  3  2  0
  2  4  1  0
  4  5  1  0
  5  6  1  0
  6  7  1  0
  7  8  2  0
  7  9  1  0
  9 10  1  0
 10 11  2  0
 10  5  1  0
  1 12  1  0
  1 13  1  0
  4 14  1  0
  5 15  1  0
  6 16  1  0
  9 17  1  0
M  END
>  <Energy>  (2) 
-197.26969031680727

>  <Real charge>  (2) 
0

>  <Mult>  (2) 
1

$$$$
