mol_841 59
     RDKit          3D

 13 12  0  0  0  0  0  0  0  0999 V2000
   -1.8759   -0.1216    0.1184 C   0  0  0  0  0  0  0  0  0  0  0  0
   -0.7219   -0.7608    0.6470 O   0  0  0  0  0  0  0  0  0  0  0  0
    0.2969   -0.9031   -0.3362 C   0  0  0  0  0  0  0  0  0  0  0  0
    0.8594    0.3426   -0.7321 O   0  0  0  0  0  0  0  0  0  0  0  0
    1.6073    0.9388    0.3192 C   0  0  0  0  0  0  0  0  0  0  0  0
   -1.6416    0.8942   -0.2139 H   0  0  0  0  0  0  0  0  0  0  0  0
   -2.2938   -0.7030   -0.7092 H   0  0  0  0  0  0  0  0  0  0  0  0
   -2.6261   -0.0601    0.9115 H   0  0  0  0  0  0  0  0  0  0  0  0
   -0.1092   -1.3992   -1.2249 H   0  0  0  0  0  0  0  0  0  0  0  0
    1.0805   -1.5546    0.0671 H   0  0  0  0  0  0  0  0  0  0  0  0
    0.9651    1.1632    1.1761 H   0  0  0  0  0  0  0  0  0  0  0  0
    2.0286    1.8775   -0.0507 H   0  0  0  0  0  0  0  0  0  0  0  0
    2.4308    0.2861    0.6247 H   0  0  0  0  0  0  0  0  0  0  0  0
  1  2  1  0
  2  3  1  0
  3  4  1  0
  4  5  1  0
  1  6  1  0
  1  7  1  0
  1  8  1  0
  3  9  1  0
  3 10  1  0
  5 11  1  0
  5 12  1  0
  5 13  1  0
M  END
>  <Energy>  (1) 
-8.389193792216368

>  <Real charge>  (1) 
0

>  <Mult>  (1) 
1

$$$$
