mol_1105 166
     RDKit          3D

 33 35  0  0  0  0  0  0  0  0999 V2000
   -0.1170   -1.0576    1.5490 O   0  0  0  0  0  0  0  0  0  0  0  0
    1.0751   -0.8515    0.9022 C   0  0  0  0  0  0  0  0  0  0  0  0
    1.8981   -1.9757    0.7769 C   0  0  0  0  0  0  0  0  0  0  0  0
    3.1649   -1.8561    0.2109 C   0  0  0  0  0  0  0  0  0  0  0  0
    3.6099   -0.6219   -0.2556 C   0  0  0  0  0  0  0  0  0  0  0  0
    4.9244   -0.4767   -0.7147 N   0  0  0  0  0  0  0  0  0  0  0  0
    2.8062    0.5081   -0.0470 C   0  0  0  0  0  0  0  0  0  0  0  0
    1.5143    0.4172    0.5090 C   0  0  0  0  0  0  0  0  0  0  0  0
    0.7294    1.5974    0.7133 N   0  0  0  0  0  0  0  0  0  0  0  0
    1.4306    2.8695    0.8615 C   0  0  0  0  0  0  0  0  0  0  0  0
   -0.6721    1.6667    0.6809 C   0  0  0  0  0  0  0  0  0  0  0  0
   -1.2809    2.7273    0.8522 O   0  0  0  0  0  0  0  0  0  0  0  0
   -1.4982    0.4913    0.3257 C   0  0  0  0  0  0  0  0  0  0  0  0
   -2.6664    0.7023   -0.4272 C   0  0  0  0  0  0  0  0  0  0  0  0
   -3.5183   -0.3632   -0.7529 C   0  0  0  0  0  0  0  0  0  0  0  0
   -4.7767   -0.1166   -1.5313 C   0  0  0  0  0  0  0  0  0  0  0  0
   -3.2131   -1.6436   -0.2806 C   0  0  0  0  0  0  0  0  0  0  0  0
   -2.0631   -1.8562    0.4805 C   0  0  0  0  0  0  0  0  0  0  0  0
   -1.2047   -0.7911    0.7667 C   0  0  0  0  0  0  0  0  0  0  0  0
    1.5569   -2.9413    1.1401 H   0  0  0  0  0  0  0  0  0  0  0  0
    3.8020   -2.7338    0.1442 H   0  0  0  0  0  0  0  0  0  0  0  0
    5.0706    0.3321   -1.3108 H   0  0  0  0  0  0  0  0  0  0  0  0
    5.3188   -1.3230   -1.1143 H   0  0  0  0  0  0  0  0  0  0  0  0
    3.2028    1.4706   -0.3565 H   0  0  0  0  0  0  0  0  0  0  0  0
    0.8129    3.6090    1.3804 H   0  0  0  0  0  0  0  0  0  0  0  0
    2.3417    2.7388    1.4544 H   0  0  0  0  0  0  0  0  0  0  0  0
    1.6706    3.2615   -0.1319 H   0  0  0  0  0  0  0  0  0  0  0  0
   -2.9150    1.7115   -0.7539 H   0  0  0  0  0  0  0  0  0  0  0  0
   -4.6412    0.7061   -2.2411 H   0  0  0  0  0  0  0  0  0  0  0  0
   -5.5953    0.1341   -0.8497 H   0  0  0  0  0  0  0  0  0  0  0  0
   -5.0573   -1.0024   -2.1109 H   0  0  0  0  0  0  0  0  0  0  0  0
   -3.8735   -2.4814   -0.4943 H   0  0  0  0  0  0  0  0  0  0  0  0
   -1.8364   -2.8515    0.8534 H   0  0  0  0  0  0  0  0  0  0  0  0
  1  2  1  0
  2  3  2  0
  3  4  1  0
  4  5  2  0
  5  6  1  0
  5  7  1  0
  7  8  2  0
  8  9  1  0
  9 10  1  0
  9 11  1  0
 11 12  2  0
 11 13  1  0
 13 14  2  0
 14 15  1  0
 15 16  1  0
 15 17  2  0
 17 18  1  0
 18 19  2  0
  8  2  1  0
 19  1  1  0
 19 13  1  0
  3 20  1  0
  4 21  1  0
  6 22  1  0
  6 23  1  0
  7 24  1  0
 10 25  1  0
 10 26  1  0
 10 27  1  0
 14 28  1  0
 16 29  1  0
 16 30  1  0
 16 31  1  0
 17 32  1  0
 18 33  1  0
M  END
>  <Energy>  (1) 
63.158500280596215

>  <Real charge>  (1) 
0

>  <Mult>  (1) 
1

$$$$
