mol_689 305
     RDKit          3D

 29 29  0  0  0  0  0  0  0  0999 V2000
   -2.4583    3.3426    0.2288 C   0  0  0  0  0  0  0  0  0  0  0  0
   -0.8231    3.3206    1.0019 S   0  0  0  0  0  0  0  0  0  0  0  0
   -0.3095    1.6613    0.6064 C   0  0  0  0  0  0  0  0  0  0  0  0
   -1.2239    0.7941    0.1952 N   0  0  0  0  0  0  0  0  0  0  0  0
   -0.7774   -0.4241   -0.0747 C   0  0  0  0  0  0  0  0  0  0  0  0
    0.5046   -0.7580    0.0455 N   0  0  0  0  0  0  0  0  0  0  0  0
    1.3607    0.1700    0.4662 C   0  0  0  0  0  0  0  0  0  0  0  0
    0.9806    1.4030    0.7647 N   0  0  0  0  0  0  0  0  0  0  0  0
    2.7059   -0.1799    0.6270 N   0  0  0  0  0  0  0  0  0  0  0  0
    3.1271   -1.3297   -0.1584 C   0  0  0  0  0  0  0  0  0  0  0  0
    3.6232    0.9489    0.6776 C   0  0  0  0  0  0  0  0  0  0  0  0
   -1.6843   -1.3854   -0.5355 N   0  0  0  0  0  0  0  0  0  0  0  0
   -3.0742   -1.1168   -0.1993 C   0  0  0  0  0  0  0  0  0  0  0  0
   -1.2315   -2.7602   -0.3814 C   0  0  0  0  0  0  0  0  0  0  0  0
   -2.3870    3.1182   -0.8392 H   0  0  0  0  0  0  0  0  0  0  0  0
   -3.1283    2.6262    0.7124 H   0  0  0  0  0  0  0  0  0  0  0  0
   -2.8900    4.3411    0.3406 H   0  0  0  0  0  0  0  0  0  0  0  0
    4.1803   -1.5598    0.0389 H   0  0  0  0  0  0  0  0  0  0  0  0
    2.5609   -2.2302    0.1062 H   0  0  0  0  0  0  0  0  0  0  0  0
    3.0228   -1.1403   -1.2331 H   0  0  0  0  0  0  0  0  0  0  0  0
    3.3922    1.6206    1.5124 H   0  0  0  0  0  0  0  0  0  0  0  0
    4.6486    0.5978    0.8399 H   0  0  0  0  0  0  0  0  0  0  0  0
    3.6100    1.5180   -0.2593 H   0  0  0  0  0  0  0  0  0  0  0  0
   -3.4173   -0.1672   -0.6261 H   0  0  0  0  0  0  0  0  0  0  0  0
   -3.2280   -1.1014    0.8860 H   0  0  0  0  0  0  0  0  0  0  0  0
   -3.7236   -1.8944   -0.6173 H   0  0  0  0  0  0  0  0  0  0  0  0
   -1.0805   -3.0165    0.6738 H   0  0  0  0  0  0  0  0  0  0  0  0
   -1.9762   -3.4532   -0.7893 H   0  0  0  0  0  0  0  0  0  0  0  0
   -0.3037   -2.9452   -0.9350 H   0  0  0  0  0  0  0  0  0  0  0  0
  1  2  1  0
  2  3  1  0
  3  4  2  0
  4  5  1  0
  5  6  2  0
  6  7  1  0
  7  8  2  0
  7  9  1  0
  9 10  1  0
  9 11  1  0
  5 12  1  0
 12 13  1  0
 12 14  1  0
  8  3  1  0
  1 15  1  0
  1 16  1  0
  1 17  1  0
 10 18  1  0
 10 19  1  0
 10 20  1  0
 11 21  1  0
 11 22  1  0
 11 23  1  0
 13 24  1  0
 13 25  1  0
 13 26  1  0
 14 27  1  0
 14 28  1  0
 14 29  1  0
M  END
>  <Energy>  (1) 
-220.7212199375245

>  <Real charge>  (1) 
0

>  <Mult>  (1) 
1

$$$$
mol_689 293
     RDKit          3D

 29 29  0  0  0  0  0  0  0  0999 V2000
   -0.7127    4.0641   -0.6887 C   0  0  0  0  0  0  0  0  0  0  0  0
   -1.8621    3.0117    0.2293 S   0  0  0  0  0  0  0  0  0  0  0  0
   -1.0266    1.4474    0.0732 C   0  0  0  0  0  0  0  0  0  0  0  0
    0.2906    1.4499   -0.0754 N   0  0  0  0  0  0  0  0  0  0  0  0
    0.8573    0.2561   -0.1716 C   0  0  0  0  0  0  0  0  0  0  0  0
    0.1569   -0.8739   -0.1178 N   0  0  0  0  0  0  0  0  0  0  0  0
   -1.1619   -0.7908    0.0430 C   0  0  0  0  0  0  0  0  0  0  0  0
   -1.7925    0.3689    0.1485 N   0  0  0  0  0  0  0  0  0  0  0  0
   -1.9116   -1.9705    0.0785 N   0  0  0  0  0  0  0  0  0  0  0  0
   -3.2283   -1.8373    0.6831 C   0  0  0  0  0  0  0  0  0  0  0  0
   -1.1531   -3.1656    0.4104 C   0  0  0  0  0  0  0  0  0  0  0  0
    2.2410    0.1847   -0.3618 N   0  0  0  0  0  0  0  0  0  0  0  0
    2.9774    1.3613    0.0729 C   0  0  0  0  0  0  0  0  0  0  0  0
    2.8315   -1.1089   -0.0554 C   0  0  0  0  0  0  0  0  0  0  0  0
    0.2483    4.1364   -0.1718 H   0  0  0  0  0  0  0  0  0  0  0  0
   -1.1349    5.0699   -0.7643 H   0  0  0  0  0  0  0  0  0  0  0  0
   -0.5577    3.6797   -1.7008 H   0  0  0  0  0  0  0  0  0  0  0  0
   -3.7652   -2.7917    0.6394 H   0  0  0  0  0  0  0  0  0  0  0  0
   -3.1565   -1.5430    1.7366 H   0  0  0  0  0  0  0  0  0  0  0  0
   -3.8486   -1.1105    0.1460 H   0  0  0  0  0  0  0  0  0  0  0  0
   -0.3503   -3.3495   -0.3130 H   0  0  0  0  0  0  0  0  0  0  0  0
   -0.7238   -3.1000    1.4169 H   0  0  0  0  0  0  0  0  0  0  0  0
   -1.8016   -4.0486    0.3814 H   0  0  0  0  0  0  0  0  0  0  0  0
    2.8670    1.5262    1.1510 H   0  0  0  0  0  0  0  0  0  0  0  0
    2.6564    2.2612   -0.4644 H   0  0  0  0  0  0  0  0  0  0  0  0
    4.0461    1.2415   -0.1385 H   0  0  0  0  0  0  0  0  0  0  0  0
    2.7036   -1.3667    1.0024 H   0  0  0  0  0  0  0  0  0  0  0  0
    3.9066   -1.0963   -0.2678 H   0  0  0  0  0  0  0  0  0  0  0  0
    2.4046   -1.9056   -0.6756 H   0  0  0  0  0  0  0  0  0  0  0  0
  1  2  1  0
  2  3  1  0
  3  4  2  0
  4  5  1  0
  5  6  2  0
  6  7  1  0
  7  8  2  0
  7  9  1  0
  9 10  1  0
  9 11  1  0
  5 12  1  0
 12 13  1  0
 12 14  1  0
  8  3  1  0
  1 15  1  0
  1 16  1  0
  1 17  1  0
 10 18  1  0
 10 19  1  0
 10 20  1  0
 11 21  1  0
 11 22  1  0
 11 23  1  0
 13 24  1  0
 13 25  1  0
 13 26  1  0
 14 27  1  0
 14 28  1  0
 14 29  1  0
M  END
>  <Energy>  (2) 
-220.42726416546154

>  <Real charge>  (2) 
0

>  <Mult>  (2) 
1

$$$$
