mol_797 327
     RDKit          3D

 26 25  0  0  0  0  0  0  0  0999 V2000
   -2.4168    2.8306    0.5619 C   0  0  0  0  0  0  0  0  0  0  0  0
   -1.9106    1.7110   -0.3236 C   0  0  0  0  0  0  0  0  0  0  0  0
   -0.6412    1.2970    0.1487 O   0  0  0  0  0  0  0  0  0  0  0  0
    0.0475    0.0665   -0.6284 P   0  0  0  0  0  5  0  0  0  0  0  0
    0.1712    0.2396   -2.1093 O   0  0  0  0  0  0  0  0  0  0  0  0
   -0.8255   -1.2021   -0.1589 O   0  0  0  0  0  0  0  0  0  0  0  0
   -0.4475   -2.4598   -0.6889 C   0  0  0  0  0  0  0  0  0  0  0  0
   -1.3406   -3.5271   -0.0913 C   0  0  0  0  0  0  0  0  0  0  0  0
    1.4398   -0.1326    0.1554 O   0  0  0  0  0  0  0  0  0  0  0  0
    2.4329    0.8536   -0.0610 C   0  0  0  0  0  0  0  0  0  0  0  0
    3.6367    0.5275    0.7983 C   0  0  0  0  0  0  0  0  0  0  0  0
   -3.3974    3.1802    0.2271 H   0  0  0  0  0  0  0  0  0  0  0  0
   -2.4973    2.4940    1.6008 H   0  0  0  0  0  0  0  0  0  0  0  0
   -1.7189    3.6743    0.5539 H   0  0  0  0  0  0  0  0  0  0  0  0
   -1.8172    2.0616   -1.3562 H   0  0  0  0  0  0  0  0  0  0  0  0
   -2.6067    0.8667   -0.2971 H   0  0  0  0  0  0  0  0  0  0  0  0
   -0.5585   -2.4433   -1.7777 H   0  0  0  0  0  0  0  0  0  0  0  0
    0.5992   -2.6640   -0.4421 H   0  0  0  0  0  0  0  0  0  0  0  0
   -1.0805   -4.5160   -0.4790 H   0  0  0  0  0  0  0  0  0  0  0  0
   -2.3918   -3.3229   -0.3202 H   0  0  0  0  0  0  0  0  0  0  0  0
   -1.2491   -3.5398    0.9998 H   0  0  0  0  0  0  0  0  0  0  0  0
    2.7161    0.8580   -1.1183 H   0  0  0  0  0  0  0  0  0  0  0  0
    2.0374    1.8391    0.2044 H   0  0  0  0  0  0  0  0  0  0  0  0
    4.4292    1.2676    0.6573 H   0  0  0  0  0  0  0  0  0  0  0  0
    3.3593    0.5040    1.8574 H   0  0  0  0  0  0  0  0  0  0  0  0
    4.0304   -0.4638    0.5504 H   0  0  0  0  0  0  0  0  0  0  0  0
  1  2  1  0
  2  3  1  0
  3  4  1  0
  4  5  2  0
  4  6  1  0
  6  7  1  0
  7  8  1  0
  4  9  1  0
  9 10  1  0
 10 11  1  0
  1 12  1  0
  1 13  1  0
  1 14  1  0
  2 15  1  0
  2 16  1  0
  7 17  1  0
  7 18  1  0
  8 19  1  0
  8 20  1  0
  8 21  1  0
 10 22  1  0
 10 23  1  0
 11 24  1  0
 11 25  1  0
 11 26  1  0
M  END
>  <Energy>  (1) 
-90.20631210888763

>  <Real charge>  (1) 
0

>  <Mult>  (1) 
1

$$$$
mol_797 429
     RDKit          3D

 26 25  0  0  0  0  0  0  0  0999 V2000
   -2.4393   -2.8954    0.4794 C   0  0  0  0  0  0  0  0  0  0  0  0
   -1.9771   -1.8061   -0.4659 C   0  0  0  0  0  0  0  0  0  0  0  0
   -0.6080   -1.5408   -0.2178 O   0  0  0  0  0  0  0  0  0  0  0  0
    0.0460   -0.3214   -1.0421 P   0  0  0  0  0  5  0  0  0  0  0  0
   -0.1968   -0.3530   -2.5178 O   0  0  0  0  0  0  0  0  0  0  0  0
   -0.5393    0.9833   -0.2972 O   0  0  0  0  0  0  0  0  0  0  0  0
   -0.2082    2.2355   -0.8726 C   0  0  0  0  0  0  0  0  0  0  0  0
   -0.6988    3.3354    0.0455 C   0  0  0  0  0  0  0  0  0  0  0  0
    1.5964   -0.3450   -0.6077 O   0  0  0  0  0  0  0  0  0  0  0  0
    1.9110   -0.4458    0.7695 C   0  0  0  0  0  0  0  0  0  0  0  0
    3.3953   -0.1981    0.9450 C   0  0  0  0  0  0  0  0  0  0  0  0
   -2.3024   -2.5857    1.5207 H   0  0  0  0  0  0  0  0  0  0  0  0
   -3.4947   -3.1314    0.3170 H   0  0  0  0  0  0  0  0  0  0  0  0
   -1.8476   -3.8059    0.3376 H   0  0  0  0  0  0  0  0  0  0  0  0
   -2.5641   -0.8960   -0.3066 H   0  0  0  0  0  0  0  0  0  0  0  0
   -2.1005   -2.1311   -1.5037 H   0  0  0  0  0  0  0  0  0  0  0  0
    0.8765    2.3087   -1.0005 H   0  0  0  0  0  0  0  0  0  0  0  0
   -0.6882    2.3203   -1.8526 H   0  0  0  0  0  0  0  0  0  0  0  0
   -0.2369    3.2462    1.0344 H   0  0  0  0  0  0  0  0  0  0  0  0
   -1.7815    3.2615    0.1920 H   0  0  0  0  0  0  0  0  0  0  0  0
   -0.4645    4.3211   -0.3660 H   0  0  0  0  0  0  0  0  0  0  0  0
    1.6554   -1.4481    1.1265 H   0  0  0  0  0  0  0  0  0  0  0  0
    1.3408    0.2914    1.3427 H   0  0  0  0  0  0  0  0  0  0  0  0
    3.6817   -0.2729    1.9978 H   0  0  0  0  0  0  0  0  0  0  0  0
    3.9786   -0.9229    0.3676 H   0  0  0  0  0  0  0  0  0  0  0  0
    3.6661    0.7963    0.5748 H   0  0  0  0  0  0  0  0  0  0  0  0
  1  2  1  0
  2  3  1  0
  3  4  1  0
  4  5  2  0
  4  6  1  0
  6  7  1  0
  7  8  1  0
  4  9  1  0
  9 10  1  0
 10 11  1  0
  1 12  1  0
  1 13  1  0
  1 14  1  0
  2 15  1  0
  2 16  1  0
  7 17  1  0
  7 18  1  0
  8 19  1  0
  8 20  1  0
  8 21  1  0
 10 22  1  0
 10 23  1  0
 11 24  1  0
 11 25  1  0
 11 26  1  0
M  END
>  <Energy>  (2) 
-90.0938031859405

>  <Real charge>  (2) 
0

>  <Mult>  (2) 
1

$$$$
mol_797 487
     RDKit          3D

 26 25  0  0  0  0  0  0  0  0999 V2000
   -3.3228   -1.6162   -0.8126 C   0  0  0  0  0  0  0  0  0  0  0  0
   -2.3659   -1.4090    0.3427 C   0  0  0  0  0  0  0  0  0  0  0  0
   -1.0654   -1.1956   -0.1775 O   0  0  0  0  0  0  0  0  0  0  0  0
    0.0653   -0.7572    0.8823 P   0  0  0  0  0  5  0  0  0  0  0  0
    0.0959   -1.5654    2.1410 O   0  0  0  0  0  0  0  0  0  0  0  0
    1.4225   -0.7997    0.0162 O   0  0  0  0  0  0  0  0  0  0  0  0
    2.6312   -0.6139    0.7318 C   0  0  0  0  0  0  0  0  0  0  0  0
    3.7682   -0.4880   -0.2606 C   0  0  0  0  0  0  0  0  0  0  0  0
   -0.2023    0.8170    1.1029 O   0  0  0  0  0  0  0  0  0  0  0  0
   -0.2484    1.6626   -0.0329 C   0  0  0  0  0  0  0  0  0  0  0  0
   -0.5103    3.0804    0.4328 C   0  0  0  0  0  0  0  0  0  0  0  0
   -3.0142   -2.4732   -1.4204 H   0  0  0  0  0  0  0  0  0  0  0  0
   -3.3248   -0.7422   -1.4724 H   0  0  0  0  0  0  0  0  0  0  0  0
   -4.3404   -1.7878   -0.4509 H   0  0  0  0  0  0  0  0  0  0  0  0
   -2.6743   -0.5415    0.9352 H   0  0  0  0  0  0  0  0  0  0  0  0
   -2.3553   -2.2936    0.9871 H   0  0  0  0  0  0  0  0  0  0  0  0
    2.7969   -1.4738    1.3882 H   0  0  0  0  0  0  0  0  0  0  0  0
    2.5638    0.2919    1.3430 H   0  0  0  0  0  0  0  0  0  0  0  0
    4.7223   -0.3459    0.2546 H   0  0  0  0  0  0  0  0  0  0  0  0
    3.6000    0.3596   -0.9333 H   0  0  0  0  0  0  0  0  0  0  0  0
    3.8346   -1.3835   -0.8872 H   0  0  0  0  0  0  0  0  0  0  0  0
   -1.0491    1.3388   -0.7045 H   0  0  0  0  0  0  0  0  0  0  0  0
    0.7048    1.6179   -0.5679 H   0  0  0  0  0  0  0  0  0  0  0  0
    0.2770    3.4129    1.1175 H   0  0  0  0  0  0  0  0  0  0  0  0
   -0.5536    3.7684   -0.4161 H   0  0  0  0  0  0  0  0  0  0  0  0
   -1.4556    3.1372    0.9826 H   0  0  0  0  0  0  0  0  0  0  0  0
  1  2  1  0
  2  3  1  0
  3  4  1  0
  4  5  2  0
  4  6  1  0
  6  7  1  0
  7  8  1  0
  4  9  1  0
  9 10  1  0
 10 11  1  0
  1 12  1  0
  1 13  1  0
  1 14  1  0
  2 15  1  0
  2 16  1  0
  7 17  1  0
  7 18  1  0
  8 19  1  0
  8 20  1  0
  8 21  1  0
 10 22  1  0
 10 23  1  0
 11 24  1  0
 11 25  1  0
 11 26  1  0
M  END
>  <Energy>  (3) 
-89.79040195192638

>  <Real charge>  (3) 
0

>  <Mult>  (3) 
1

$$$$
mol_797 207
     RDKit          3D

 26 25  0  0  0  0  0  0  0  0999 V2000
   -1.4565    3.4326   -1.3158 C   0  0  0  0  0  0  0  0  0  0  0  0
   -1.2656    2.2465   -0.3936 C   0  0  0  0  0  0  0  0  0  0  0  0
   -0.2122    1.4446   -0.8969 O   0  0  0  0  0  0  0  0  0  0  0  0
    0.1109    0.0922   -0.0850 P   0  0  0  0  0  5  0  0  0  0  0  0
    0.3639    0.2744    1.3782 O   0  0  0  0  0  0  0  0  0  0  0  0
    1.3293   -0.5522   -0.9163 O   0  0  0  0  0  0  0  0  0  0  0  0
    2.5960    0.0713   -0.8020 C   0  0  0  0  0  0  0  0  0  0  0  0
    3.4784   -0.7514    0.1143 C   0  0  0  0  0  0  0  0  0  0  0  0
   -1.1317   -0.8643   -0.4499 O   0  0  0  0  0  0  0  0  0  0  0  0
   -1.1251   -2.1561    0.1307 C   0  0  0  0  0  0  0  0  0  0  0  0
   -2.3303   -2.9218   -0.3743 C   0  0  0  0  0  0  0  0  0  0  0  0
   -0.5353    4.0207   -1.3835 H   0  0  0  0  0  0  0  0  0  0  0  0
   -1.6954    3.0974   -2.3306 H   0  0  0  0  0  0  0  0  0  0  0  0
   -2.2628    4.0792   -0.9586 H   0  0  0  0  0  0  0  0  0  0  0  0
   -2.1863    1.6566   -0.3442 H   0  0  0  0  0  0  0  0  0  0  0  0
   -1.0104    2.5908    0.6136 H   0  0  0  0  0  0  0  0  0  0  0  0
    3.0377    0.1216   -1.8018 H   0  0  0  0  0  0  0  0  0  0  0  0
    2.4985    1.0958   -0.4272 H   0  0  0  0  0  0  0  0  0  0  0  0
    4.4747   -0.3082    0.1972 H   0  0  0  0  0  0  0  0  0  0  0  0
    3.0403   -0.8222    1.1150 H   0  0  0  0  0  0  0  0  0  0  0  0
    3.5772   -1.7748   -0.2624 H   0  0  0  0  0  0  0  0  0  0  0  0
   -0.2043   -2.6794   -0.1455 H   0  0  0  0  0  0  0  0  0  0  0  0
   -1.1677   -2.0645    1.2206 H   0  0  0  0  0  0  0  0  0  0  0  0
   -3.2564   -2.3978   -0.1157 H   0  0  0  0  0  0  0  0  0  0  0  0
   -2.3619   -3.9272    0.0546 H   0  0  0  0  0  0  0  0  0  0  0  0
   -2.3052   -3.0038   -1.4660 H   0  0  0  0  0  0  0  0  0  0  0  0
  1  2  1  0
  2  3  1  0
  3  4  1  0
  4  5  2  0
  4  6  1  0
  6  7  1  0
  7  8  1  0
  4  9  1  0
  9 10  1  0
 10 11  1  0
  1 12  1  0
  1 13  1  0
  1 14  1  0
  2 15  1  0
  2 16  1  0
  7 17  1  0
  7 18  1  0
  8 19  1  0
  8 20  1  0
  8 21  1  0
 10 22  1  0
 10 23  1  0
 11 24  1  0
 11 25  1  0
 11 26  1  0
M  END
>  <Energy>  (4) 
-89.59658717159165

>  <Real charge>  (4) 
0

>  <Mult>  (4) 
1

$$$$
mol_797 49
     RDKit          3D

 26 25  0  0  0  0  0  0  0  0999 V2000
    2.9362   -0.2477    1.9986 C   0  0  0  0  0  0  0  0  0  0  0  0
    2.2106   -0.8012    0.7899 C   0  0  0  0  0  0  0  0  0  0  0  0
    1.3779    0.2131    0.2574 O   0  0  0  0  0  0  0  0  0  0  0  0
    0.4246   -0.2122   -0.9691 P   0  0  0  0  0  5  0  0  0  0  0  0
    1.1145   -0.9267   -2.0877 O   0  0  0  0  0  0  0  0  0  0  0  0
   -0.7451   -1.0608   -0.2538 O   0  0  0  0  0  0  0  0  0  0  0  0
   -1.6971   -1.6646   -1.1126 C   0  0  0  0  0  0  0  0  0  0  0  0
   -2.7950   -2.2745   -0.2663 C   0  0  0  0  0  0  0  0  0  0  0  0
   -0.3039    1.1610   -1.3863 O   0  0  0  0  0  0  0  0  0  0  0  0
   -0.9198    1.9483   -0.3827 C   0  0  0  0  0  0  0  0  0  0  0  0
   -0.1617    3.2522   -0.2412 C   0  0  0  0  0  0  0  0  0  0  0  0
    3.5937   -1.0025    2.4389 H   0  0  0  0  0  0  0  0  0  0  0  0
    2.2212    0.0850    2.7584 H   0  0  0  0  0  0  0  0  0  0  0  0
    3.5359    0.6258    1.7220 H   0  0  0  0  0  0  0  0  0  0  0  0
    2.9320   -1.1142    0.0286 H   0  0  0  0  0  0  0  0  0  0  0  0
    1.6023   -1.6641    1.0789 H   0  0  0  0  0  0  0  0  0  0  0  0
   -2.1169   -0.9115   -1.7871 H   0  0  0  0  0  0  0  0  0  0  0  0
   -1.2053   -2.4402   -1.7079 H   0  0  0  0  0  0  0  0  0  0  0  0
   -3.5507   -2.7549   -0.8940 H   0  0  0  0  0  0  0  0  0  0  0  0
   -2.3825   -3.0189    0.4228 H   0  0  0  0  0  0  0  0  0  0  0  0
   -3.2799   -1.5075    0.3466 H   0  0  0  0  0  0  0  0  0  0  0  0
   -0.9562    1.4218    0.5765 H   0  0  0  0  0  0  0  0  0  0  0  0
   -1.9500    2.1450   -0.6945 H   0  0  0  0  0  0  0  0  0  0  0  0
   -0.6300    3.8961    0.5084 H   0  0  0  0  0  0  0  0  0  0  0  0
   -0.1313    3.7866   -1.1965 H   0  0  0  0  0  0  0  0  0  0  0  0
    0.8765    3.0666    0.0526 H   0  0  0  0  0  0  0  0  0  0  0  0
  1  2  1  0
  2  3  1  0
  3  4  1  0
  4  5  2  0
  4  6  1  0
  6  7  1  0
  7  8  1  0
  4  9  1  0
  9 10  1  0
 10 11  1  0
  1 12  1  0
  1 13  1  0
  1 14  1  0
  2 15  1  0
  2 16  1  0
  7 17  1  0
  7 18  1  0
  8 19  1  0
  8 20  1  0
  8 21  1  0
 10 22  1  0
 10 23  1  0
 11 24  1  0
 11 25  1  0
 11 26  1  0
M  END
>  <Energy>  (5) 
-89.50372212777249

>  <Real charge>  (5) 
0

>  <Mult>  (5) 
1

$$$$
mol_797 10
     RDKit          3D

 26 25  0  0  0  0  0  0  0  0999 V2000
   -1.0351    3.6637   -0.5811 C   0  0  0  0  0  0  0  0  0  0  0  0
   -0.2132    2.6922    0.2408 C   0  0  0  0  0  0  0  0  0  0  0  0
   -0.8294    1.4167    0.2159 O   0  0  0  0  0  0  0  0  0  0  0  0
   -0.1773    0.3008   -0.7445 P   0  0  0  0  0  5  0  0  0  0  0  0
    0.0601    0.7379   -2.1553 O   0  0  0  0  0  0  0  0  0  0  0  0
    1.1549   -0.1356    0.0521 O   0  0  0  0  0  0  0  0  0  0  0  0
    2.0073   -1.0554   -0.6083 C   0  0  0  0  0  0  0  0  0  0  0  0
    3.1048   -1.4719    0.3485 C   0  0  0  0  0  0  0  0  0  0  0  0
   -1.1522   -0.9705   -0.5825 O   0  0  0  0  0  0  0  0  0  0  0  0
   -1.5295   -1.3717    0.7221 C   0  0  0  0  0  0  0  0  0  0  0  0
   -2.2271   -2.7134    0.6319 C   0  0  0  0  0  0  0  0  0  0  0  0
   -2.0613    3.7166   -0.2028 H   0  0  0  0  0  0  0  0  0  0  0  0
   -0.5969    4.6652   -0.5536 H   0  0  0  0  0  0  0  0  0  0  0  0
   -1.0973    3.3354   -1.6235 H   0  0  0  0  0  0  0  0  0  0  0  0
   -0.1719    3.0247    1.2825 H   0  0  0  0  0  0  0  0  0  0  0  0
    0.8146    2.6401   -0.1341 H   0  0  0  0  0  0  0  0  0  0  0  0
    2.4396   -0.5759   -1.4921 H   0  0  0  0  0  0  0  0  0  0  0  0
    1.4321   -1.9314   -0.9246 H   0  0  0  0  0  0  0  0  0  0  0  0
    3.6768   -0.6000    0.6828 H   0  0  0  0  0  0  0  0  0  0  0  0
    2.6790   -1.9359    1.2444 H   0  0  0  0  0  0  0  0  0  0  0  0
    3.7880   -2.1817   -0.1260 H   0  0  0  0  0  0  0  0  0  0  0  0
   -0.6463   -1.4543    1.3628 H   0  0  0  0  0  0  0  0  0  0  0  0
   -2.2083   -0.6262    1.1476 H   0  0  0  0  0  0  0  0  0  0  0  0
   -1.5627   -3.4640    0.1911 H   0  0  0  0  0  0  0  0  0  0  0  0
   -3.1078   -2.6479   -0.0155 H   0  0  0  0  0  0  0  0  0  0  0  0
   -2.5411   -3.0575    1.6213 H   0  0  0  0  0  0  0  0  0  0  0  0
  1  2  1  0
  2  3  1  0
  3  4  1  0
  4  5  2  0
  4  6  1  0
  6  7  1  0
  7  8  1  0
  4  9  1  0
  9 10  1  0
 10 11  1  0
  1 12  1  0
  1 13  1  0
  1 14  1  0
  2 15  1  0
  2 16  1  0
  7 17  1  0
  7 18  1  0
  8 19  1  0
  8 20  1  0
  8 21  1  0
 10 22  1  0
 10 23  1  0
 11 24  1  0
 11 25  1  0
 11 26  1  0
M  END
>  <Energy>  (6) 
-89.4100553466386

>  <Real charge>  (6) 
0

>  <Mult>  (6) 
1

$$$$
mol_797 500
     RDKit          3D

 26 25  0  0  0  0  0  0  0  0999 V2000
   -2.4917   -2.3552   -0.0286 C   0  0  0  0  0  0  0  0  0  0  0  0
   -0.9881   -2.1944    0.0608 C   0  0  0  0  0  0  0  0  0  0  0  0
   -0.6787   -0.8524    0.3963 O   0  0  0  0  0  0  0  0  0  0  0  0
   -0.1538    0.1011   -0.7926 P   0  0  0  0  0  5  0  0  0  0  0  0
   -1.0071    0.0898   -2.0212 O   0  0  0  0  0  0  0  0  0  0  0  0
    1.3680   -0.3751   -1.0179 O   0  0  0  0  0  0  0  0  0  0  0  0
    2.2767   -0.2693    0.0630 C   0  0  0  0  0  0  0  0  0  0  0  0
    3.5563   -0.9897   -0.3096 C   0  0  0  0  0  0  0  0  0  0  0  0
   -0.0114    1.5369   -0.0769 O   0  0  0  0  0  0  0  0  0  0  0  0
   -1.2172    2.2353    0.1776 C   0  0  0  0  0  0  0  0  0  0  0  0
   -0.8947    3.4917    0.9593 C   0  0  0  0  0  0  0  0  0  0  0  0
   -2.7599   -3.3905   -0.2571 H   0  0  0  0  0  0  0  0  0  0  0  0
   -2.9069   -1.7045   -0.8047 H   0  0  0  0  0  0  0  0  0  0  0  0
   -2.9668   -2.0672    0.9150 H   0  0  0  0  0  0  0  0  0  0  0  0
   -0.5887   -2.8379    0.8505 H   0  0  0  0  0  0  0  0  0  0  0  0
   -0.5095   -2.4849   -0.8805 H   0  0  0  0  0  0  0  0  0  0  0  0
    1.8465   -0.7174    0.9638 H   0  0  0  0  0  0  0  0  0  0  0  0
    2.4867    0.7868    0.2575 H   0  0  0  0  0  0  0  0  0  0  0  0
    3.3560   -2.0448   -0.5237 H   0  0  0  0  0  0  0  0  0  0  0  0
    3.9924   -0.5579   -1.2166 H   0  0  0  0  0  0  0  0  0  0  0  0
    4.2896   -0.9267    0.4992 H   0  0  0  0  0  0  0  0  0  0  0  0
   -1.6923    2.4954   -0.7735 H   0  0  0  0  0  0  0  0  0  0  0  0
   -1.8980    1.5992    0.7522 H   0  0  0  0  0  0  0  0  0  0  0  0
   -0.4023    3.2416    1.9049 H   0  0  0  0  0  0  0  0  0  0  0  0
   -0.2021    4.1280    0.3984 H   0  0  0  0  0  0  0  0  0  0  0  0
   -1.8028    4.0619    1.1741 H   0  0  0  0  0  0  0  0  0  0  0  0
  1  2  1  0
  2  3  1  0
  3  4  1  0
  4  5  2  0
  4  6  1  0
  6  7  1  0
  7  8  1  0
  4  9  1  0
  9 10  1  0
 10 11  1  0
  1 12  1  0
  1 13  1  0
  1 14  1  0
  2 15  1  0
  2 16  1  0
  7 17  1  0
  7 18  1  0
  8 19  1  0
  8 20  1  0
  8 21  1  0
 10 22  1  0
 10 23  1  0
 11 24  1  0
 11 25  1  0
 11 26  1  0
M  END
>  <Energy>  (7) 
-89.40373918131257

>  <Real charge>  (7) 
0

>  <Mult>  (7) 
1

$$$$
