mol_170 397
     RDKit          3D

 37 37  0  0  0  0  0  0  0  0999 V2000
   -1.8007   -3.0332    0.7494 C   0  0  0  0  0  0  0  0  0  0  0  0
   -0.8038   -2.3886   -0.2051 C   0  0  0  0  0  0  0  0  0  0  0  0
   -0.8393   -0.9171   -0.0721 N   0  0  0  0  0  0  0  0  0  0  0  0
   -1.9394   -0.2484   -0.7980 C   0  0  0  0  0  0  0  0  0  0  0  0
   -2.2444    1.0793   -0.1483 C   0  0  0  0  0  0  0  0  0  0  0  0
   -3.0446    1.0221    1.1238 C   0  0  0  0  0  0  0  0  0  0  0  0
   -1.8691    2.2505   -0.6918 C   0  0  0  0  0  0  0  0  0  0  0  0
    0.4311   -0.3114   -0.1234 C   0  0  0  0  0  0  0  0  0  0  0  0
    1.0364    0.1506    1.0660 C   0  0  0  0  0  0  0  0  0  0  0  0
    2.2740    0.8251    1.1081 C   0  0  0  0  0  0  0  0  0  0  0  0
    2.9890    1.0529   -0.0713 C   0  0  0  0  0  0  0  0  0  0  0  0
    2.4382    0.5953   -1.2741 C   0  0  0  0  0  0  0  0  0  0  0  0
    1.1955   -0.0769   -1.2842 C   0  0  0  0  0  0  0  0  0  0  0  0
    0.7574   -0.5417   -2.5836 N   0  0  0  0  0  4  0  0  0  0  0  0
    0.8246   -1.7574   -2.8035 O   0  0  0  0  0  1  0  0  0  0  0  0
    0.3971    0.3237   -3.3927 O   0  0  0  0  0  0  0  0  0  0  0  0
    4.3036    1.7979   -0.0534 C   0  0  0  0  0  0  0  0  0  0  0  0
    5.1538    1.3838   -1.0310 F   0  0  0  0  0  0  0  0  0  0  0  0
    4.1363    3.1339   -0.2354 F   0  0  0  0  0  0  0  0  0  0  0  0
    4.9777    1.6529    1.1187 F   0  0  0  0  0  0  0  0  0  0  0  0
    0.3886   -0.0662    2.3460 N   0  0  0  0  0  4  0  0  0  0  0  0
   -0.0496    0.9360    2.9284 O   0  0  0  0  0  1  0  0  0  0  0  0
    0.4134   -1.2174    2.8028 O   0  0  0  0  0  0  0  0  0  0  0  0
   -2.8298   -2.7455    0.5139 H   0  0  0  0  0  0  0  0  0  0  0  0
   -1.7346   -4.1238    0.6828 H   0  0  0  0  0  0  0  0  0  0  0  0
   -1.6041   -2.7425    1.7855 H   0  0  0  0  0  0  0  0  0  0  0  0
    0.1932   -2.7827    0.0308 H   0  0  0  0  0  0  0  0  0  0  0  0
   -1.0413   -2.6878   -1.2323 H   0  0  0  0  0  0  0  0  0  0  0  0
   -2.8482   -0.8614   -0.7651 H   0  0  0  0  0  0  0  0  0  0  0  0
   -1.7131   -0.1300   -1.8615 H   0  0  0  0  0  0  0  0  0  0  0  0
   -4.0444    0.6243    0.9210 H   0  0  0  0  0  0  0  0  0  0  0  0
   -3.1635    2.0110    1.5788 H   0  0  0  0  0  0  0  0  0  0  0  0
   -2.5630    0.3736    1.8607 H   0  0  0  0  0  0  0  0  0  0  0  0
   -2.1125    3.1978   -0.2190 H   0  0  0  0  0  0  0  0  0  0  0  0
   -1.3143    2.2960   -1.6245 H   0  0  0  0  0  0  0  0  0  0  0  0
    2.6735    1.1684    2.0639 H   0  0  0  0  0  0  0  0  0  0  0  0
    2.9764    0.7569   -2.2102 H   0  0  0  0  0  0  0  0  0  0  0  0
  1  2  1  0
  2  3  1  0
  3  4  1  0
  4  5  1  0
  5  6  1  0
  5  7  2  3
  3  8  1  0
  8  9  2  0
  9 10  1  0
 10 11  2  0
 11 12  1  0
 12 13  2  0
 13 14  1  0
 14 15  1  0
 14 16  2  0
 11 17  1  0
 17 18  1  0
 17 19  1  0
 17 20  1  0
  9 21  1  0
 21 22  1  0
 21 23  2  0
 13  8  1  0
  1 24  1  0
  1 25  1  0
  1 26  1  0
  2 27  1  0
  2 28  1  0
  4 29  1  0
  4 30  1  0
  6 31  1  0
  6 32  1  0
  6 33  1  0
  7 34  1  0
  7 35  1  0
 10 36  1  0
 12 37  1  0
M  CHG  4  14   1  15  -1  21   1  22  -1
M  END
>  <Energy>  (1) 
138.97549495043344

>  <Real charge>  (1) 
0

>  <Mult>  (1) 
1

$$$$
mol_170 469
     RDKit          3D

 37 37  0  0  0  0  0  0  0  0999 V2000
    1.3709    3.2157   -0.8758 C   0  0  0  0  0  0  0  0  0  0  0  0
    0.4279    2.4865    0.0726 C   0  0  0  0  0  0  0  0  0  0  0  0
    0.6923    1.0325    0.0467 N   0  0  0  0  0  0  0  0  0  0  0  0
    1.8364    0.5889    0.8703 C   0  0  0  0  0  0  0  0  0  0  0  0
    2.3712   -0.7179    0.3372 C   0  0  0  0  0  0  0  0  0  0  0  0
    3.2233   -0.6262   -0.8987 C   0  0  0  0  0  0  0  0  0  0  0  0
    2.1451   -1.8929    0.9506 C   0  0  0  0  0  0  0  0  0  0  0  0
   -0.4736    0.2431    0.0805 C   0  0  0  0  0  0  0  0  0  0  0  0
   -0.9375   -0.3737   -1.1022 C   0  0  0  0  0  0  0  0  0  0  0  0
   -2.0556   -1.2313   -1.1557 C   0  0  0  0  0  0  0  0  0  0  0  0
   -2.7826   -1.5087    0.0056 C   0  0  0  0  0  0  0  0  0  0  0  0
   -2.3832   -0.8897    1.1959 C   0  0  0  0  0  0  0  0  0  0  0  0
   -1.2580   -0.0354    1.2178 C   0  0  0  0  0  0  0  0  0  0  0  0
   -0.9715    0.5730    2.5000 N   0  0  0  0  0  4  0  0  0  0  0  0
   -0.5291   -0.1724    3.3842 O   0  0  0  0  0  1  0  0  0  0  0  0
   -1.2376    1.7743    2.6297 O   0  0  0  0  0  0  0  0  0  0  0  0
   -3.9953   -2.4093   -0.0315 C   0  0  0  0  0  0  0  0  0  0  0  0
   -4.1771   -3.0935    1.1297 F   0  0  0  0  0  0  0  0  0  0  0  0
   -3.9316   -3.3448   -1.0159 F   0  0  0  0  0  0  0  0  0  0  0  0
   -5.1412   -1.7098   -0.2437 F   0  0  0  0  0  0  0  0  0  0  0  0
   -0.2638   -0.1305   -2.3639 N   0  0  0  0  0  4  0  0  0  0  0  0
   -0.4455    0.9733   -2.8962 O   0  0  0  0  0  1  0  0  0  0  0  0
    0.3579   -1.0811   -2.8589 O   0  0  0  0  0  0  0  0  0  0  0  0
    1.2828    2.8324   -1.8967 H   0  0  0  0  0  0  0  0  0  0  0  0
    2.4157    3.1069   -0.5698 H   0  0  0  0  0  0  0  0  0  0  0  0
    1.1365    4.2848   -0.8916 H   0  0  0  0  0  0  0  0  0  0  0  0
    0.5566    2.8827    1.0862 H   0  0  0  0  0  0  0  0  0  0  0  0
   -0.6014    2.7065   -0.2389 H   0  0  0  0  0  0  0  0  0  0  0  0
    1.5705    0.5100    1.9283 H   0  0  0  0  0  0  0  0  0  0  0  0
    2.6449    1.3291    0.8328 H   0  0  0  0  0  0  0  0  0  0  0  0
    4.1401   -0.0681   -0.6821 H   0  0  0  0  0  0  0  0  0  0  0  0
    3.5127   -1.6141   -1.2721 H   0  0  0  0  0  0  0  0  0  0  0  0
    2.6924   -0.1099   -1.7032 H   0  0  0  0  0  0  0  0  0  0  0  0
    2.5530   -2.8219    0.5624 H   0  0  0  0  0  0  0  0  0  0  0  0
    1.5526   -1.9587    1.8587 H   0  0  0  0  0  0  0  0  0  0  0  0
   -2.3512   -1.6801   -2.1055 H   0  0  0  0  0  0  0  0  0  0  0  0
   -2.9472   -1.0695    2.1133 H   0  0  0  0  0  0  0  0  0  0  0  0
  1  2  1  0
  2  3  1  0
  3  4  1  0
  4  5  1  0
  5  6  1  0
  5  7  2  3
  3  8  1  0
  8  9  2  0
  9 10  1  0
 10 11  2  0
 11 12  1  0
 12 13  2  0
 13 14  1  0
 14 15  1  0
 14 16  2  0
 11 17  1  0
 17 18  1  0
 17 19  1  0
 17 20  1  0
  9 21  1  0
 21 22  1  0
 21 23  2  0
 13  8  1  0
  1 24  1  0
  1 25  1  0
  1 26  1  0
  2 27  1  0
  2 28  1  0
  4 29  1  0
  4 30  1  0
  6 31  1  0
  6 32  1  0
  6 33  1  0
  7 34  1  0
  7 35  1  0
 10 36  1  0
 12 37  1  0
M  CHG  4  14   1  15  -1  21   1  22  -1
M  END
>  <Energy>  (2) 
138.99543723483066

>  <Real charge>  (2) 
0

>  <Mult>  (2) 
1

$$$$
