mol_809 42
     RDKit          3D

 33 35  0  0  0  0  0  0  0  0999 V2000
    2.7473   -1.5852   -1.5782 C   0  0  0  0  0  0  0  0  0  0  0  0
    1.8467   -1.7627   -0.3558 C   0  0  0  0  0  0  0  0  0  0  0  0
    0.7745   -0.7500   -0.3263 N   0  0  0  0  0  0  0  0  0  0  0  0
   -0.3662   -1.1621    0.4151 C   0  0  0  0  0  0  0  0  0  0  0  0
   -0.2358   -2.2704    1.2033 N   0  0  0  0  0  0  0  0  0  0  0  0
   -1.2743   -2.6785    1.9539 C   0  0  0  0  0  0  0  0  0  0  0  0
   -2.4887   -2.0387    1.9685 C   0  0  0  0  0  0  0  0  0  0  0  0
   -2.6451   -0.9234    1.1525 C   0  0  0  0  0  0  0  0  0  0  0  0
   -1.5924   -0.4462    0.3441 C   0  0  0  0  0  0  0  0  0  0  0  0
   -1.8449    0.6622   -0.5689 N   0  0  0  0  0  0  0  0  0  0  0  0
   -3.2534    0.9088   -0.9229 C   0  0  0  0  0  0  0  0  0  0  0  0
   -0.8220    1.4045   -1.1948 C   0  0  0  0  0  0  0  0  0  0  0  0
   -0.9588    2.1192   -2.7302 S   0  0  0  0  0  0  0  0  0  0  0  0
    0.4232    1.6367   -0.4217 C   0  0  0  0  0  0  0  0  0  0  0  0
    0.8274    2.9425   -0.1080 C   0  0  0  0  0  0  0  0  0  0  0  0
    2.0481    3.1456    0.5204 C   0  0  0  0  0  0  0  0  0  0  0  0
    2.8205    2.0355    0.7998 C   0  0  0  0  0  0  0  0  0  0  0  0
    2.4472    0.7686    0.5131 N   0  0  0  0  0  0  0  0  0  0  0  0
    1.2411    0.5634   -0.0829 C   0  0  0  0  0  0  0  0  0  0  0  0
    3.3149   -0.6509   -1.5462 H   0  0  0  0  0  0  0  0  0  0  0  0
    2.1558   -1.5863   -2.5001 H   0  0  0  0  0  0  0  0  0  0  0  0
    3.4676   -2.4078   -1.6351 H   0  0  0  0  0  0  0  0  0  0  0  0
    1.4177   -2.7683   -0.4659 H   0  0  0  0  0  0  0  0  0  0  0  0
    2.4397   -1.7694    0.5683 H   0  0  0  0  0  0  0  0  0  0  0  0
   -1.0912   -3.5596    2.5616 H   0  0  0  0  0  0  0  0  0  0  0  0
   -3.3001   -2.3980    2.5910 H   0  0  0  0  0  0  0  0  0  0  0  0
   -3.6137   -0.4358    1.1792 H   0  0  0  0  0  0  0  0  0  0  0  0
   -3.7800    1.2953   -0.0445 H   0  0  0  0  0  0  0  0  0  0  0  0
   -3.7130   -0.0209   -1.2740 H   0  0  0  0  0  0  0  0  0  0  0  0
   -3.3799    1.6621   -1.7016 H   0  0  0  0  0  0  0  0  0  0  0  0
    0.2039    3.7947   -0.3639 H   0  0  0  0  0  0  0  0  0  0  0  0
    2.3935    4.1421    0.7707 H   0  0  0  0  0  0  0  0  0  0  0  0
    3.7904    2.1329    1.2795 H   0  0  0  0  0  0  0  0  0  0  0  0
  1  2  1  0
  2  3  1  0
  3  4  1  0
  4  5  2  0
  5  6  1  0
  6  7  2  0
  7  8  1  0
  8  9  2  0
  9 10  1  0
 10 11  1  0
 10 12  1  0
 12 13  2  0
 12 14  1  0
 14 15  2  0
 15 16  1  0
 16 17  2  0
 17 18  1  0
 18 19  2  0
  9  4  1  0
 19  3  1  0
 19 14  1  0
  1 20  1  0
  1 21  1  0
  1 22  1  0
  2 23  1  0
  2 24  1  0
  6 25  1  0
  7 26  1  0
  8 27  1  0
 11 28  1  0
 11 29  1  0
 11 30  1  0
 15 31  1  0
 16 32  1  0
 17 33  1  0
M  END
>  <Energy>  (1) 
70.80578776265637

>  <Real charge>  (1) 
0

>  <Mult>  (1) 
1

$$$$
mol_809 38
     RDKit          3D

 33 35  0  0  0  0  0  0  0  0999 V2000
   -2.3525    1.9610    1.6480 C   0  0  0  0  0  0  0  0  0  0  0  0
   -2.3554    0.9587    0.4945 C   0  0  0  0  0  0  0  0  0  0  0  0
   -1.0515    0.2800    0.3758 N   0  0  0  0  0  0  0  0  0  0  0  0
   -0.0044    1.0871   -0.1409 C   0  0  0  0  0  0  0  0  0  0  0  0
   -0.3513    2.2807   -0.7065 N   0  0  0  0  0  0  0  0  0  0  0  0
    0.5999    3.0648   -1.2436 C   0  0  0  0  0  0  0  0  0  0  0  0
    1.9319    2.7334   -1.2503 C   0  0  0  0  0  0  0  0  0  0  0  0
    2.3045    1.5319   -0.6575 C   0  0  0  0  0  0  0  0  0  0  0  0
    1.3520    0.6672   -0.0791 C   0  0  0  0  0  0  0  0  0  0  0  0
    1.8104   -0.5278    0.6187 N   0  0  0  0  0  0  0  0  0  0  0  0
    3.2108   -0.5172    1.0770 C   0  0  0  0  0  0  0  0  0  0  0  0
    0.9660   -1.6057    0.9573 C   0  0  0  0  0  0  0  0  0  0  0  0
    1.1863   -2.6054    2.3141 S   0  0  0  0  0  0  0  0  0  0  0  0
   -0.1408   -1.9294    0.0224 C   0  0  0  0  0  0  0  0  0  0  0  0
   -0.2012   -3.1883   -0.5930 C   0  0  0  0  0  0  0  0  0  0  0  0
   -1.3026   -3.5145   -1.3722 C   0  0  0  0  0  0  0  0  0  0  0  0
   -2.3058   -2.5734   -1.4948 C   0  0  0  0  0  0  0  0  0  0  0  0
   -2.2655   -1.3522   -0.9174 N   0  0  0  0  0  0  0  0  0  0  0  0
   -1.1752   -1.0196   -0.1729 C   0  0  0  0  0  0  0  0  0  0  0  0
   -1.6600    2.7904    1.4804 H   0  0  0  0  0  0  0  0  0  0  0  0
   -3.3534    2.3852    1.7780 H   0  0  0  0  0  0  0  0  0  0  0  0
   -2.0662    1.4720    2.5855 H   0  0  0  0  0  0  0  0  0  0  0  0
   -3.1407    0.2336    0.7512 H   0  0  0  0  0  0  0  0  0  0  0  0
   -2.6688    1.4355   -0.4435 H   0  0  0  0  0  0  0  0  0  0  0  0
    0.2449    3.9922   -1.6828 H   0  0  0  0  0  0  0  0  0  0  0  0
    2.6678    3.3919   -1.6974 H   0  0  0  0  0  0  0  0  0  0  0  0
    3.3621    1.2908   -0.6737 H   0  0  0  0  0  0  0  0  0  0  0  0
    3.4057    0.3986    1.6447 H   0  0  0  0  0  0  0  0  0  0  0  0
    3.4676   -1.3660    1.7118 H   0  0  0  0  0  0  0  0  0  0  0  0
    3.8711   -0.5827    0.2064 H   0  0  0  0  0  0  0  0  0  0  0  0
    0.5952   -3.9144   -0.4544 H   0  0  0  0  0  0  0  0  0  0  0  0
   -1.3834   -4.4813   -1.8559 H   0  0  0  0  0  0  0  0  0  0  0  0
   -3.1976   -2.7770   -2.0811 H   0  0  0  0  0  0  0  0  0  0  0  0
  1  2  1  0
  2  3  1  0
  3  4  1  0
  4  5  2  0
  5  6  1  0
  6  7  2  0
  7  8  1  0
  8  9  2  0
  9 10  1  0
 10 11  1  0
 10 12  1  0
 12 13  2  0
 12 14  1  0
 14 15  2  0
 15 16  1  0
 16 17  2  0
 17 18  1  0
 18 19  2  0
  9  4  1  0
 19  3  1  0
 19 14  1  0
  1 20  1  0
  1 21  1  0
  1 22  1  0
  2 23  1  0
  2 24  1  0
  6 25  1  0
  7 26  1  0
  8 27  1  0
 11 28  1  0
 11 29  1  0
 11 30  1  0
 15 31  1  0
 16 32  1  0
 17 33  1  0
M  END
>  <Energy>  (2) 
70.92133175535213

>  <Real charge>  (2) 
0

>  <Mult>  (2) 
1

$$$$
mol_809 136
     RDKit          3D

 33 35  0  0  0  0  0  0  0  0999 V2000
    3.1243   -0.4953   -1.3901 C   0  0  0  0  0  0  0  0  0  0  0  0
    2.5264    0.3896   -0.2972 C   0  0  0  0  0  0  0  0  0  0  0  0
    1.0537    0.3169   -0.3001 N   0  0  0  0  0  0  0  0  0  0  0  0
    0.5273   -0.9111    0.1835 C   0  0  0  0  0  0  0  0  0  0  0  0
    1.3555   -1.7469    0.8726 N   0  0  0  0  0  0  0  0  0  0  0  0
    0.8621   -2.8934    1.3779 C   0  0  0  0  0  0  0  0  0  0  0  0
   -0.4486   -3.2836    1.2322 C   0  0  0  0  0  0  0  0  0  0  0  0
   -1.2960   -2.4523    0.5096 C   0  0  0  0  0  0  0  0  0  0  0  0
   -0.8306   -1.2437   -0.0421 C   0  0  0  0  0  0  0  0  0  0  0  0
   -1.7152   -0.4633   -0.8819 N   0  0  0  0  0  0  0  0  0  0  0  0
   -2.7128   -1.2411   -1.6424 C   0  0  0  0  0  0  0  0  0  0  0  0
   -1.6447    0.9442   -1.0129 C   0  0  0  0  0  0  0  0  0  0  0  0
   -2.4441    1.8162   -2.2407 S   0  0  0  0  0  0  0  0  0  0  0  0
   -0.8924    1.7290    0.0119 C   0  0  0  0  0  0  0  0  0  0  0  0
   -1.5134    2.8010    0.6744 C   0  0  0  0  0  0  0  0  0  0  0  0
   -0.7711    3.6127    1.5217 C   0  0  0  0  0  0  0  0  0  0  0  0
    0.5714    3.3313    1.6683 C   0  0  0  0  0  0  0  0  0  0  0  0
    1.1915    2.2990    1.0571 N   0  0  0  0  0  0  0  0  0  0  0  0
    0.4602    1.4818    0.2482 C   0  0  0  0  0  0  0  0  0  0  0  0
    2.9340   -1.5582   -1.2170 H   0  0  0  0  0  0  0  0  0  0  0  0
    2.7078   -0.2369   -2.3697 H   0  0  0  0  0  0  0  0  0  0  0  0
    4.2091   -0.3549   -1.4341 H   0  0  0  0  0  0  0  0  0  0  0  0
    2.8546    1.4094   -0.5435 H   0  0  0  0  0  0  0  0  0  0  0  0
    2.9593    0.1501    0.6830 H   0  0  0  0  0  0  0  0  0  0  0  0
    1.5752   -3.5038    1.9243 H   0  0  0  0  0  0  0  0  0  0  0  0
   -0.8047   -4.2121    1.6635 H   0  0  0  0  0  0  0  0  0  0  0  0
   -2.3328   -2.7575    0.4030 H   0  0  0  0  0  0  0  0  0  0  0  0
   -3.6248   -1.3165   -1.0417 H   0  0  0  0  0  0  0  0  0  0  0  0
   -2.3309   -2.2391   -1.8826 H   0  0  0  0  0  0  0  0  0  0  0  0
   -2.9643   -0.7796   -2.5986 H   0  0  0  0  0  0  0  0  0  0  0  0
   -2.5678    3.0160    0.5212 H   0  0  0  0  0  0  0  0  0  0  0  0
   -1.2247    4.4516    2.0372 H   0  0  0  0  0  0  0  0  0  0  0  0
    1.2069    3.9402    2.3052 H   0  0  0  0  0  0  0  0  0  0  0  0
  1  2  1  0
  2  3  1  0
  3  4  1  0
  4  5  2  0
  5  6  1  0
  6  7  2  0
  7  8  1  0
  8  9  2  0
  9 10  1  0
 10 11  1  0
 10 12  1  0
 12 13  2  0
 12 14  1  0
 14 15  2  0
 15 16  1  0
 16 17  2  0
 17 18  1  0
 18 19  2  0
  9  4  1  0
 19  3  1  0
 19 14  1  0
  1 20  1  0
  1 21  1  0
  1 22  1  0
  2 23  1  0
  2 24  1  0
  6 25  1  0
  7 26  1  0
  8 27  1  0
 11 28  1  0
 11 29  1  0
 11 30  1  0
 15 31  1  0
 16 32  1  0
 17 33  1  0
M  END
>  <Energy>  (3) 
70.94793357401362

>  <Real charge>  (3) 
0

>  <Mult>  (3) 
1

$$$$
