mol_1112 14
     RDKit          3D

 24 26  0  0  0  0  0  0  0  0999 V2000
    0.0663    2.6597   -0.2313 O   0  0  0  0  0  0  0  0  0  0  0  0
    0.0359    1.4391   -0.1251 C   0  0  0  0  0  0  0  0  0  0  0  0
   -1.2546    0.7214   -0.1114 C   0  0  0  0  0  0  0  0  0  0  0  0
   -2.4502    1.4435   -0.2206 C   0  0  0  0  0  0  0  0  0  0  0  0
   -3.6748    0.7736   -0.2085 C   0  0  0  0  0  0  0  0  0  0  0  0
   -3.7094   -0.6152   -0.0878 C   0  0  0  0  0  0  0  0  0  0  0  0
   -2.5195   -1.3369    0.0212 C   0  0  0  0  0  0  0  0  0  0  0  0
   -1.2892   -0.6669    0.0093 C   0  0  0  0  0  0  0  0  0  0  0  0
   -0.0359   -1.4391    0.1251 C   0  0  0  0  0  0  0  0  0  0  0  0
   -0.0663   -2.6597    0.2313 O   0  0  0  0  0  0  0  0  0  0  0  0
    1.2546   -0.7214    0.1114 C   0  0  0  0  0  0  0  0  0  0  0  0
    2.4502   -1.4435    0.2206 C   0  0  0  0  0  0  0  0  0  0  0  0
    3.6748   -0.7736    0.2085 C   0  0  0  0  0  0  0  0  0  0  0  0
    3.7094    0.6152    0.0878 C   0  0  0  0  0  0  0  0  0  0  0  0
    2.5195    1.3369   -0.0212 C   0  0  0  0  0  0  0  0  0  0  0  0
    1.2892    0.6669   -0.0093 C   0  0  0  0  0  0  0  0  0  0  0  0
   -2.4313    2.5280   -0.3152 H   0  0  0  0  0  0  0  0  0  0  0  0
   -4.6020    1.3363   -0.2934 H   0  0  0  0  0  0  0  0  0  0  0  0
   -4.6637   -1.1375   -0.0783 H   0  0  0  0  0  0  0  0  0  0  0  0
   -2.5548   -2.4211    0.1151 H   0  0  0  0  0  0  0  0  0  0  0  0
    2.4313   -2.5280    0.3152 H   0  0  0  0  0  0  0  0  0  0  0  0
    4.6020   -1.3363    0.2934 H   0  0  0  0  0  0  0  0  0  0  0  0
    4.6637    1.1375    0.0783 H   0  0  0  0  0  0  0  0  0  0  0  0
    2.5548    2.4211   -0.1151 H   0  0  0  0  0  0  0  0  0  0  0  0
  1  2  2  0
  2  3  1  0
  3  4  2  0
  4  5  1  0
  5  6  2  0
  6  7  1  0
  7  8  2  0
  8  9  1  0
  9 10  2  0
  9 11  1  0
 11 12  2  0
 12 13  1  0
 13 14  2  0
 14 15  1  0
 15 16  2  0
 16  2  1  0
  8  3  1  0
 16 11  1  0
  4 17  1  0
  5 18  1  0
  6 19  1  0
  7 20  1  0
 12 21  1  0
 13 22  1  0
 14 23  1  0
 15 24  1  0
M  END
>  <Energy>  (1) 
63.78903451075711

>  <Real charge>  (1) 
0

>  <Mult>  (1) 
1

$$$$
