mol_635 14
     RDKit          3D

 20 22  0  0  0  0  0  0  0  0999 V2000
   -0.9883    2.2283    0.1501 C   0  0  0  0  0  0  0  0  0  0  0  0
    0.3452    2.4131    0.1491 C   0  0  0  0  0  0  0  0  0  0  0  0
    0.9756    1.1026    0.0604 C   0  0  0  0  0  0  0  0  0  0  0  0
    2.2929    0.6869    0.0217 C   0  0  0  0  0  0  0  0  0  0  0  0
    2.5568   -0.6927   -0.0680 C   0  0  0  0  0  0  0  0  0  0  0  0
    1.5089   -1.6385   -0.1178 C   0  0  0  0  0  0  0  0  0  0  0  0
    0.1676   -1.2094   -0.0780 C   0  0  0  0  0  0  0  0  0  0  0  0
   -1.0066   -1.9872   -0.1160 C   0  0  0  0  0  0  0  0  0  0  0  0
   -2.2721   -1.3620   -0.0645 C   0  0  0  0  0  0  0  0  0  0  0  0
   -2.3932    0.0374    0.0250 C   0  0  0  0  0  0  0  0  0  0  0  0
   -1.2386    0.7957    0.0620 C   0  0  0  0  0  0  0  0  0  0  0  0
   -0.0233    0.1682    0.0108 C   0  0  0  0  0  0  0  0  0  0  0  0
   -1.7548    2.9832    0.2050 H   0  0  0  0  0  0  0  0  0  0  0  0
    0.8776    3.3480    0.2031 H   0  0  0  0  0  0  0  0  0  0  0  0
    3.1072    1.4025    0.0592 H   0  0  0  0  0  0  0  0  0  0  0  0
    3.5880   -1.0383   -0.0996 H   0  0  0  0  0  0  0  0  0  0  0  0
    1.7432   -2.6974   -0.1869 H   0  0  0  0  0  0  0  0  0  0  0  0
   -0.9442   -3.0699   -0.1850 H   0  0  0  0  0  0  0  0  0  0  0  0
   -3.1705   -1.9750   -0.0947 H   0  0  0  0  0  0  0  0  0  0  0  0
   -3.3714    0.5046    0.0638 H   0  0  0  0  0  0  0  0  0  0  0  0
  1  2  2  0
  2  3  1  0
  3  4  2  0
  4  5  1  0
  5  6  2  0
  6  7  1  0
  7  8  2  0
  8  9  1  0
  9 10  2  0
 10 11  1  0
 11 12  2  0
 11  1  1  0
 12  3  1  0
 12  7  1  0
  1 13  1  0
  2 14  1  0
  4 15  1  0
  5 16  1  0
  6 17  1  0
  8 18  1  0
  9 19  1  0
 10 20  1  0
M  END
>  <Energy>  (1) 
51.366168024519084

>  <Real charge>  (1) 
0

>  <Mult>  (1) 
1

$$$$
