mol_627 98
     RDKit          3D

 10 10  0  0  0  0  0  0  0  0999 V2000
   -1.2321   -0.0292    0.5037 C   0  0  0  0  0  0  0  0  0  0  0  0
    0.1532   -0.5201    0.2799 C   0  0  0  0  0  0  0  0  0  0  0  0
    1.3187    0.4294    0.2173 C   0  0  0  0  0  0  0  0  0  0  0  0
    1.0334   -0.3422    1.3947 O   0  0  0  0  0  0  0  0  0  0  0  0
   -1.7206    0.1668   -0.4556 H   0  0  0  0  0  0  0  0  0  0  0  0
   -1.8180   -0.7840    1.0371 H   0  0  0  0  0  0  0  0  0  0  0  0
   -1.2515    0.8948    1.0910 H   0  0  0  0  0  0  0  0  0  0  0  0
    0.2002   -1.4536   -0.2637 H   0  0  0  0  0  0  0  0  0  0  0  0
    1.1325    1.4949    0.2609 H   0  0  0  0  0  0  0  0  0  0  0  0
    2.1841    0.1433   -0.3670 H   0  0  0  0  0  0  0  0  0  0  0  0
  1  2  1  0
  2  3  1  0
  3  4  1  0
  4  2  1  0
  1  5  1  0
  1  6  1  0
  1  7  1  0
  2  8  1  0
  3  9  1  0
  3 10  1  0
M  END
>  <Energy>  (1) 
7.540078237631182

>  <Real charge>  (1) 
0

>  <Mult>  (1) 
1

$$$$
