mol_527 90
     RDKit          3D

 12 11  0  0  0  0  0  0  0  0999 V2000
   -1.2418   -0.6528   -0.0016 C   0  0  0  0  0  0  0  0  0  0  0  0
   -0.0098    0.2052   -0.0180 C   0  0  0  0  0  0  0  0  0  0  0  0
   -0.0736    1.5408   -0.1349 C   0  0  0  0  0  0  0  0  0  0  0  0
    1.2980   -0.5221    0.1045 C   0  0  0  0  0  0  0  0  0  0  0  0
   -2.1577   -0.0597   -0.0945 H   0  0  0  0  0  0  0  0  0  0  0  0
   -1.2195   -1.3650   -0.8328 H   0  0  0  0  0  0  0  0  0  0  0  0
   -1.3012   -1.2140    0.9365 H   0  0  0  0  0  0  0  0  0  0  0  0
    0.8225    2.1541   -0.1458 H   0  0  0  0  0  0  0  0  0  0  0  0
   -1.0238    2.0591   -0.2229 H   0  0  0  0  0  0  0  0  0  0  0  0
    1.3363   -1.0784    1.0467 H   0  0  0  0  0  0  0  0  0  0  0  0
    2.1528    0.1621    0.0855 H   0  0  0  0  0  0  0  0  0  0  0  0
    1.4180   -1.2293   -0.7227 H   0  0  0  0  0  0  0  0  0  0  0  0
  1  2  1  0
  2  3  2  3
  2  4  1  0
  1  5  1  0
  1  6  1  0
  1  7  1  0
  3  8  1  0
  3  9  1  0
  4 10  1  0
  4 11  1  0
  4 12  1  0
M  END
>  <Energy>  (1) 
7.501290259565794

>  <Real charge>  (1) 
0

>  <Mult>  (1) 
1

$$$$
