mol_612 17
     RDKit          3D

 24 26  0  0  0  0  0  0  0  0999 V2000
   -3.5531   -0.0052    0.3988 C   0  0  0  0  0  0  0  0  0  0  0  0
   -2.9990    1.2640    0.3379 C   0  0  0  0  0  0  0  0  0  0  0  0
   -1.6175    1.4150    0.1831 C   0  0  0  0  0  0  0  0  0  0  0  0
   -0.7406    0.3048    0.0834 C   0  0  0  0  0  0  0  0  0  0  0  0
   -1.3353   -0.9817    0.1488 C   0  0  0  0  0  0  0  0  0  0  0  0
   -2.7252   -1.1204    0.3046 C   0  0  0  0  0  0  0  0  0  0  0  0
   -0.5370   -2.1247    0.0580 C   0  0  0  0  0  0  0  0  0  0  0  0
    0.8425   -2.0216   -0.0967 C   0  0  0  0  0  0  0  0  0  0  0  0
    1.4646   -0.7724   -0.1652 C   0  0  0  0  0  0  0  0  0  0  0  0
    2.8596   -0.7030   -0.3217 C   0  0  0  0  0  0  0  0  0  0  0  0
    3.5149    0.5231   -0.3939 C   0  0  0  0  0  0  0  0  0  0  0  0
    2.7809    1.6960   -0.3103 C   0  0  0  0  0  0  0  0  0  0  0  0
    1.3924    1.6400   -0.1545 C   0  0  0  0  0  0  0  0  0  0  0  0
    0.6878    0.4116   -0.0767 C   0  0  0  0  0  0  0  0  0  0  0  0
   -4.6256   -0.1298    0.5190 H   0  0  0  0  0  0  0  0  0  0  0  0
   -3.6358    2.1418    0.4103 H   0  0  0  0  0  0  0  0  0  0  0  0
   -1.2355    2.4308    0.1413 H   0  0  0  0  0  0  0  0  0  0  0  0
   -3.1773   -2.1090    0.3543 H   0  0  0  0  0  0  0  0  0  0  0  0
   -0.9827   -3.1160    0.1069 H   0  0  0  0  0  0  0  0  0  0  0  0
    1.4287   -2.9357   -0.1635 H   0  0  0  0  0  0  0  0  0  0  0  0
    3.4516   -1.6136   -0.3891 H   0  0  0  0  0  0  0  0  0  0  0  0
    4.5940    0.5593   -0.5150 H   0  0  0  0  0  0  0  0  0  0  0  0
    3.2820    2.6589   -0.3655 H   0  0  0  0  0  0  0  0  0  0  0  0
    0.8656    2.5879   -0.0944 H   0  0  0  0  0  0  0  0  0  0  0  0
  1  2  2  0
  2  3  1  0
  3  4  2  0
  4  5  1  0
  5  6  2  0
  5  7  1  0
  7  8  2  0
  8  9  1  0
  9 10  2  0
 10 11  1  0
 11 12  2  0
 12 13  1  0
 13 14  2  0
  6  1  1  0
 14  4  1  0
 14  9  1  0
  1 15  1  0
  2 16  1  0
  3 17  1  0
  6 18  1  0
  7 19  1  0
  8 20  1  0
 10 21  1  0
 11 22  1  0
 12 23  1  0
 13 24  1  0
M  END
>  <Energy>  (1) 
52.760830907732036

>  <Real charge>  (1) 
0

>  <Mult>  (1) 
1

$$$$
