mol_771 71
     RDKit          3D

 10  9  0  0  0  0  0  0  0  0999 V2000
   -1.1486    0.1748    0.0994 C   0  0  0  0  0  0  0  0  0  0  0  0
    0.1638   -0.5783   -0.0003 C   0  0  0  0  0  0  0  0  0  0  0  0
    1.3543    0.3397   -0.1308 C   0  0  0  0  0  0  0  0  0  0  0  0
    1.2928    1.5642   -0.1559 O   0  0  0  0  0  0  0  0  0  0  0  0
   -1.3162    0.7921   -0.7895 H   0  0  0  0  0  0  0  0  0  0  0  0
   -1.1571    0.8362    0.9721 H   0  0  0  0  0  0  0  0  0  0  0  0
   -1.9843   -0.5254    0.1924 H   0  0  0  0  0  0  0  0  0  0  0  0
    0.1532   -1.2379   -0.8739 H   0  0  0  0  0  0  0  0  0  0  0  0
    0.3127   -1.1936    0.8927 H   0  0  0  0  0  0  0  0  0  0  0  0
    2.3294   -0.1718   -0.2061 H   0  0  0  0  0  0  0  0  0  0  0  0
  1  2  1  0
  2  3  1  0
  3  4  2  0
  1  5  1  0
  1  6  1  0
  1  7  1  0
  2  8  1  0
  2  9  1  0
  3 10  1  0
M  END
>  <Energy>  (1) 
-1.4672953593593445

>  <Real charge>  (1) 
0

>  <Mult>  (1) 
1

$$$$
mol_771 24
     RDKit          3D

 10  9  0  0  0  0  0  0  0  0999 V2000
   -1.1068   -0.0086    0.3238 C   0  0  0  0  0  0  0  0  0  0  0  0
    0.1430   -0.4189   -0.4291 C   0  0  0  0  0  0  0  0  0  0  0  0
    1.3130    0.4232    0.0022 C   0  0  0  0  0  0  0  0  0  0  0  0
    2.3806   -0.0495    0.3796 O   0  0  0  0  0  0  0  0  0  0  0  0
   -1.3540    1.0413    0.1342 H   0  0  0  0  0  0  0  0  0  0  0  0
   -1.9584   -0.6224    0.0150 H   0  0  0  0  0  0  0  0  0  0  0  0
   -0.9701   -0.1272    1.4039 H   0  0  0  0  0  0  0  0  0  0  0  0
    0.0030   -0.2803   -1.5056 H   0  0  0  0  0  0  0  0  0  0  0  0
    0.3718   -1.4728   -0.2416 H   0  0  0  0  0  0  0  0  0  0  0  0
    1.1780    1.5152   -0.0824 H   0  0  0  0  0  0  0  0  0  0  0  0
  1  2  1  0
  2  3  1  0
  3  4  2  0
  1  5  1  0
  1  6  1  0
  1  7  1  0
  2  8  1  0
  2  9  1  0
  3 10  1  0
M  END
>  <Energy>  (2) 
-0.9354431561988372

>  <Real charge>  (2) 
0

>  <Mult>  (2) 
1

$$$$
