mol_309 52
     RDKit          3D

 14 14  0  0  0  0  0  0  0  0999 V2000
   -2.8648    1.3505   -0.0580 O   0  0  0  0  0  1  0  0  0  0  0  0
   -2.4018    0.2049    0.0243 N   0  0  0  0  0  4  0  0  0  0  0  0
   -3.0815   -0.8263    0.1167 O   0  0  0  0  0  0  0  0  0  0  0  0
   -0.9404    0.0583    0.0112 C   0  0  0  0  0  0  0  0  0  0  0  0
   -0.1301    1.1966   -0.0918 C   0  0  0  0  0  0  0  0  0  0  0  0
    1.2613    1.0525   -0.1039 C   0  0  0  0  0  0  0  0  0  0  0  0
    2.2129    2.4891   -0.2327 Cl  0  0  0  0  0  0  0  0  0  0  0  0
    1.8387   -0.2217   -0.0135 C   0  0  0  0  0  0  0  0  0  0  0  0
    3.5481   -0.4670   -0.0229 Cl  0  0  0  0  0  0  0  0  0  0  0  0
    1.0209   -1.3529    0.0891 C   0  0  0  0  0  0  0  0  0  0  0  0
   -0.3701   -1.2184    0.1019 C   0  0  0  0  0  0  0  0  0  0  0  0
   -0.5680    2.1907   -0.1626 H   0  0  0  0  0  0  0  0  0  0  0  0
    1.4632   -2.3451    0.1597 H   0  0  0  0  0  0  0  0  0  0  0  0
   -0.9883   -2.1113    0.1825 H   0  0  0  0  0  0  0  0  0  0  0  0
  1  2  1  0
  2  3  2  0
  2  4  1  0
  4  5  2  0
  5  6  1  0
  6  7  1  0
  6  8  2  0
  8  9  1  0
  8 10  1  0
 10 11  2  0
 11  4  1  0
  5 12  1  0
 10 13  1  0
 11 14  1  0
M  CHG  2   1  -1   2   1
M  END
>  <Energy>  (1) 
47.24490105566026

>  <Real charge>  (1) 
0

>  <Mult>  (1) 
1

$$$$
