mol_40 171
     RDKit          3D

 23 22  0  0  0  0  0  0  0  0999 V2000
    3.8297   -0.1734   -0.0003 C   0  0  0  0  0  0  0  0  0  0  0  0
    2.4560   -0.8335    0.0737 C   0  0  0  0  0  0  0  0  0  0  0  0
    1.3391    0.1793   -0.2033 C   0  0  0  0  0  0  0  0  0  0  0  0
   -0.0394   -0.4876   -0.1279 C   0  0  0  0  0  0  0  0  0  0  0  0
   -1.1570    0.5249   -0.4049 C   0  0  0  0  0  0  0  0  0  0  0  0
   -2.5349   -0.1426   -0.3295 C   0  0  0  0  0  0  0  0  0  0  0  0
   -3.6492    0.8646   -0.6051 C   0  0  0  0  0  0  0  0  0  0  0  0
   -5.5551   -0.0950   -0.4928 I   0  0  0  0  0  0  0  0  0  0  0  0
    3.9996    0.2514   -1.0126 H   0  0  0  0  0  0  0  0  0  0  0  0
    3.9101    0.6363    0.7559 H   0  0  0  0  0  0  0  0  0  0  0  0
    4.6169   -0.9294    0.2041 H   0  0  0  0  0  0  0  0  0  0  0  0
    2.4112   -1.6551   -0.6742 H   0  0  0  0  0  0  0  0  0  0  0  0
    2.3220   -1.2718    1.0868 H   0  0  0  0  0  0  0  0  0  0  0  0
    1.4818    0.6161   -1.2165 H   0  0  0  0  0  0  0  0  0  0  0  0
    1.3925    0.9997    0.5462 H   0  0  0  0  0  0  0  0  0  0  0  0
   -0.0924   -1.3081   -0.8774 H   0  0  0  0  0  0  0  0  0  0  0  0
   -0.1817   -0.9245    0.8852 H   0  0  0  0  0  0  0  0  0  0  0  0
   -1.1043    1.3453    0.3445 H   0  0  0  0  0  0  0  0  0  0  0  0
   -1.0150    0.9617   -1.4182 H   0  0  0  0  0  0  0  0  0  0  0  0
   -2.5929   -0.9615   -1.0794 H   0  0  0  0  0  0  0  0  0  0  0  0
   -2.6822   -0.5779    0.6831 H   0  0  0  0  0  0  0  0  0  0  0  0
   -3.5327    1.2981   -1.6212 H   0  0  0  0  0  0  0  0  0  0  0  0
   -3.6222    1.6827    0.1459 H   0  0  0  0  0  0  0  0  0  0  0  0
  1  2  1  0
  2  3  1  0
  3  4  1  0
  4  5  1  0
  5  6  1  0
  6  7  1  0
  7  8  1  0
  1  9  1  0
  1 10  1  0
  1 11  1  0
  2 12  1  0
  2 13  1  0
  3 14  1  0
  3 15  1  0
  4 16  1  0
  4 17  1  0
  5 18  1  0
  5 19  1  0
  6 20  1  0
  6 21  1  0
  7 22  1  0
  7 23  1  0
M  END
>  <Energy>  (1) 
3.8310127314671396

>  <Real charge>  (1) 
0

>  <Mult>  (1) 
1

$$$$
mol_40 58
     RDKit          3D

 23 22  0  0  0  0  0  0  0  0999 V2000
   -3.7926    0.1741    0.3956 C   0  0  0  0  0  0  0  0  0  0  0  0
   -2.5226   -0.4014   -0.2242 C   0  0  0  0  0  0  0  0  0  0  0  0
   -1.2793    0.3551    0.2573 C   0  0  0  0  0  0  0  0  0  0  0  0
   -0.0054   -0.2262   -0.3674 C   0  0  0  0  0  0  0  0  0  0  0  0
    1.2387    0.5299    0.1136 C   0  0  0  0  0  0  0  0  0  0  0  0
    2.5129   -0.0546   -0.5115 C   0  0  0  0  0  0  0  0  0  0  0  0
    3.7677    0.7025   -0.0716 C   0  0  0  0  0  0  0  0  0  0  0  0
    4.2691    0.3010    1.9723 I   0  0  0  0  0  0  0  0  0  0  0  0
   -4.6746   -0.3924    0.0295 H   0  0  0  0  0  0  0  0  0  0  0  0
   -3.9121    1.2410    0.1100 H   0  0  0  0  0  0  0  0  0  0  0  0
   -3.7528    0.0927    1.5028 H   0  0  0  0  0  0  0  0  0  0  0  0
   -2.5991   -0.3310   -1.3312 H   0  0  0  0  0  0  0  0  0  0  0  0
   -2.4405   -1.4744    0.0557 H   0  0  0  0  0  0  0  0  0  0  0  0
   -1.3701    1.4279   -0.0229 H   0  0  0  0  0  0  0  0  0  0  0  0
   -1.2115    0.2835    1.3654 H   0  0  0  0  0  0  0  0  0  0  0  0
    0.0853   -1.2989   -0.0869 H   0  0  0  0  0  0  0  0  0  0  0  0
   -0.0739   -0.1550   -1.4755 H   0  0  0  0  0  0  0  0  0  0  0  0
    1.3000    0.4615    1.2212 H   0  0  0  0  0  0  0  0  0  0  0  0
    1.1487    1.6020   -0.1691 H   0  0  0  0  0  0  0  0  0  0  0  0
    2.4355    0.0097   -1.6190 H   0  0  0  0  0  0  0  0  0  0  0  0
    2.6157   -1.1267   -0.2359 H   0  0  0  0  0  0  0  0  0  0  0  0
    4.6266    0.3749   -0.6947 H   0  0  0  0  0  0  0  0  0  0  0  0
    3.6344    1.7961   -0.2136 H   0  0  0  0  0  0  0  0  0  0  0  0
  1  2  1  0
  2  3  1  0
  3  4  1  0
  4  5  1  0
  5  6  1  0
  6  7  1  0
  7  8  1  0
  1  9  1  0
  1 10  1  0
  1 11  1  0
  2 12  1  0
  2 13  1  0
  3 14  1  0
  3 15  1  0
  4 16  1  0
  4 17  1  0
  5 18  1  0
  5 19  1  0
  6 20  1  0
  6 21  1  0
  7 22  1  0
  7 23  1  0
M  END
>  <Energy>  (2) 
4.707032664122274

>  <Real charge>  (2) 
0

>  <Mult>  (2) 
1

$$$$
