mol_112 49
     RDKit          3D

 29 30  0  0  0  0  0  0  0  0999 V2000
    2.8537    2.7567    0.1782 O   0  0  0  0  0  0  0  0  0  0  0  0
    3.2170    1.4407    0.0712 C   0  0  0  0  0  0  0  0  0  0  0  0
    4.5793    1.1714    0.1923 C   0  0  0  0  0  0  0  0  0  0  0  0
    5.0408   -0.1385    0.0718 C   0  0  0  0  0  0  0  0  0  0  0  0
    4.1356   -1.1681   -0.1777 C   0  0  0  0  0  0  0  0  0  0  0  0
    4.7082   -2.7818   -0.3508 Cl  0  0  0  0  0  0  0  0  0  0  0  0
    2.7684   -0.9078   -0.2931 C   0  0  0  0  0  0  0  0  0  0  0  0
    2.2943    0.4039   -0.1476 C   0  0  0  0  0  0  0  0  0  0  0  0
    0.8404    0.7239   -0.2468 C   0  0  0  0  0  0  0  0  0  0  0  0
    0.5334    1.8641   -0.5832 O   0  0  0  0  0  0  0  0  0  0  0  0
   -0.0332   -0.2858    0.1050 N   0  0  0  0  0  0  0  0  0  0  0  0
   -1.4494   -0.2606    0.0652 C   0  0  0  0  0  0  0  0  0  0  0  0
   -2.1837    0.8054   -0.4645 C   0  0  0  0  0  0  0  0  0  0  0  0
   -3.5839    0.7711   -0.4801 C   0  0  0  0  0  0  0  0  0  0  0  0
   -4.2593   -0.3410    0.0353 C   0  0  0  0  0  0  0  0  0  0  0  0
   -3.5469   -1.4212    0.5641 C   0  0  0  0  0  0  0  0  0  0  0  0
   -2.1509   -1.3739    0.5734 C   0  0  0  0  0  0  0  0  0  0  0  0
   -1.2974   -2.7311    1.2309 Cl  0  0  0  0  0  0  0  0  0  0  0  0
   -5.7269   -0.3761    0.0178 N   0  0  0  0  0  4  0  0  0  0  0  0
   -6.2822   -1.3789    0.4873 O   0  0  0  0  0  1  0  0  0  0  0  0
   -6.3208    0.5974   -0.4654 O   0  0  0  0  0  0  0  0  0  0  0  0
    1.9143    2.8376   -0.1030 H   0  0  0  0  0  0  0  0  0  0  0  0
    5.2788    1.9843    0.3718 H   0  0  0  0  0  0  0  0  0  0  0  0
    6.1043   -0.3451    0.1616 H   0  0  0  0  0  0  0  0  0  0  0  0
    2.0981   -1.7306   -0.5225 H   0  0  0  0  0  0  0  0  0  0  0  0
    0.3522   -1.1260    0.5246 H   0  0  0  0  0  0  0  0  0  0  0  0
   -1.6982    1.6832   -0.8820 H   0  0  0  0  0  0  0  0  0  0  0  0
   -4.1248    1.6189   -0.8987 H   0  0  0  0  0  0  0  0  0  0  0  0
   -4.0613   -2.2920    0.9649 H   0  0  0  0  0  0  0  0  0  0  0  0
  1  2  1  0
  2  3  2  0
  3  4  1  0
  4  5  2  0
  5  6  1  0
  5  7  1  0
  7  8  2  0
  8  9  1  0
  9 10  2  0
  9 11  1  0
 11 12  1  0
 12 13  2  0
 13 14  1  0
 14 15  2  0
 15 16  1  0
 16 17  2  0
 17 18  1  0
 15 19  1  0
 19 20  1  0
 19 21  2  0
  8  2  1  0
 17 12  1  0
  1 22  1  0
  3 23  1  0
  4 24  1  0
  7 25  1  0
 11 26  1  0
 13 27  1  0
 14 28  1  0
 16 29  1  0
M  CHG  2  19   1  20  -1
M  END
>  <Energy>  (1) 
52.43533891852882

>  <Real charge>  (1) 
0

>  <Mult>  (1) 
1

$$$$
mol_112 107
     RDKit          3D

 29 30  0  0  0  0  0  0  0  0999 V2000
   -1.9028    1.0542    1.7247 O   0  0  0  0  0  0  0  0  0  0  0  0
   -2.6593    1.0427    0.5827 C   0  0  0  0  0  0  0  0  0  0  0  0
   -3.9709    1.5249    0.6478 C   0  0  0  0  0  0  0  0  0  0  0  0
   -4.7683    1.5273   -0.4967 C   0  0  0  0  0  0  0  0  0  0  0  0
   -4.2541    1.0494   -1.6989 C   0  0  0  0  0  0  0  0  0  0  0  0
   -5.2415    1.0545   -3.1075 Cl  0  0  0  0  0  0  0  0  0  0  0  0
   -2.9480    0.5681   -1.7682 C   0  0  0  0  0  0  0  0  0  0  0  0
   -2.1289    0.5575   -0.6253 C   0  0  0  0  0  0  0  0  0  0  0  0
   -0.7346    0.0209   -0.7924 C   0  0  0  0  0  0  0  0  0  0  0  0
   -0.3921   -0.3736   -1.9029 O   0  0  0  0  0  0  0  0  0  0  0  0
    0.0620    0.0143    0.3341 N   0  0  0  0  0  0  0  0  0  0  0  0
    1.3987   -0.4279    0.4682 C   0  0  0  0  0  0  0  0  0  0  0  0
    2.1401   -0.9529   -0.5964 C   0  0  0  0  0  0  0  0  0  0  0  0
    3.4619   -1.3773   -0.4113 C   0  0  0  0  0  0  0  0  0  0  0  0
    4.0530   -1.2771    0.8522 C   0  0  0  0  0  0  0  0  0  0  0  0
    3.3340   -0.7565    1.9317 C   0  0  0  0  0  0  0  0  0  0  0  0
    2.0156   -0.3365    1.7332 C   0  0  0  0  0  0  0  0  0  0  0  0
    1.1645    0.3018    3.1008 Cl  0  0  0  0  0  0  0  0  0  0  0  0
    5.4381   -1.7215    1.0474 N   0  0  0  0  0  4  0  0  0  0  0  0
    5.9207   -1.6141    2.1835 O   0  0  0  0  0  1  0  0  0  0  0  0
    6.0418   -2.1770    0.0665 O   0  0  0  0  0  0  0  0  0  0  0  0
   -2.4290    1.4215    2.4585 H   0  0  0  0  0  0  0  0  0  0  0  0
   -4.3895    1.9019    1.5771 H   0  0  0  0  0  0  0  0  0  0  0  0
   -5.7878    1.9022   -0.4457 H   0  0  0  0  0  0  0  0  0  0  0  0
   -2.5650    0.1986   -2.7181 H   0  0  0  0  0  0  0  0  0  0  0  0
   -0.3677    0.3763    1.1863 H   0  0  0  0  0  0  0  0  0  0  0  0
    1.7181   -1.0476   -1.5931 H   0  0  0  0  0  0  0  0  0  0  0  0
    4.0072   -1.7803   -1.2634 H   0  0  0  0  0  0  0  0  0  0  0  0
    3.7839   -0.6740    2.9187 H   0  0  0  0  0  0  0  0  0  0  0  0
  1  2  1  0
  2  3  2  0
  3  4  1  0
  4  5  2  0
  5  6  1  0
  5  7  1  0
  7  8  2  0
  8  9  1  0
  9 10  2  0
  9 11  1  0
 11 12  1  0
 12 13  2  0
 13 14  1  0
 14 15  2  0
 15 16  1  0
 16 17  2  0
 17 18  1  0
 15 19  1  0
 19 20  1  0
 19 21  2  0
  8  2  1  0
 17 12  1  0
  1 22  1  0
  3 23  1  0
  4 24  1  0
  7 25  1  0
 11 26  1  0
 13 27  1  0
 14 28  1  0
 16 29  1  0
M  CHG  2  19   1  20  -1
M  END
>  <Energy>  (2) 
52.829908740954714

>  <Real charge>  (2) 
0

>  <Mult>  (2) 
1

$$$$
mol_112 352
     RDKit          3D

 29 30  0  0  0  0  0  0  0  0999 V2000
   -2.9180   -2.1606    1.5252 O   0  0  0  0  0  0  0  0  0  0  0  0
   -3.2419   -0.9861    0.8965 C   0  0  0  0  0  0  0  0  0  0  0  0
   -4.5998   -0.6628    0.9152 C   0  0  0  0  0  0  0  0  0  0  0  0
   -5.0437    0.5072    0.3072 C   0  0  0  0  0  0  0  0  0  0  0  0
   -4.1233    1.3447   -0.3150 C   0  0  0  0  0  0  0  0  0  0  0  0
   -4.6686    2.7939   -1.0686 Cl  0  0  0  0  0  0  0  0  0  0  0  0
   -2.7602    1.0284   -0.3384 C   0  0  0  0  0  0  0  0  0  0  0  0
   -2.2958   -0.1485    0.2705 C   0  0  0  0  0  0  0  0  0  0  0  0
   -0.8461   -0.5467    0.2813 C   0  0  0  0  0  0  0  0  0  0  0  0
   -0.5559   -1.6005    0.8446 O   0  0  0  0  0  0  0  0  0  0  0  0
    0.0609    0.2924   -0.3388 N   0  0  0  0  0  0  0  0  0  0  0  0
    1.4658    0.1252   -0.4545 C   0  0  0  0  0  0  0  0  0  0  0  0
    2.1617   -0.9684    0.0706 C   0  0  0  0  0  0  0  0  0  0  0  0
    3.5509   -1.0722   -0.0793 C   0  0  0  0  0  0  0  0  0  0  0  0
    4.2553   -0.0735   -0.7609 C   0  0  0  0  0  0  0  0  0  0  0  0
    3.5828    1.0292   -1.2947 C   0  0  0  0  0  0  0  0  0  0  0  0
    2.1976    1.1199   -1.1379 C   0  0  0  0  0  0  0  0  0  0  0  0
    1.3949    2.5003   -1.8121 Cl  0  0  0  0  0  0  0  0  0  0  0  0
    5.7108   -0.1838   -0.9170 N   0  0  0  0  0  4  0  0  0  0  0  0
    6.2924    0.7237   -1.5276 O   0  0  0  0  0  1  0  0  0  0  0  0
    6.2691   -1.1759   -0.4295 O   0  0  0  0  0  0  0  0  0  0  0  0
   -1.9450   -2.2891    1.4519 H   0  0  0  0  0  0  0  0  0  0  0  0
   -5.3075   -1.3274    1.4054 H   0  0  0  0  0  0  0  0  0  0  0  0
   -6.1014    0.7568    0.3230 H   0  0  0  0  0  0  0  0  0  0  0  0
   -2.1002    1.7252   -0.8402 H   0  0  0  0  0  0  0  0  0  0  0  0
   -0.2718    1.1409   -0.7772 H   0  0  0  0  0  0  0  0  0  0  0  0
    1.6569   -1.7667    0.6067 H   0  0  0  0  0  0  0  0  0  0  0  0
    4.0605   -1.9376    0.3425 H   0  0  0  0  0  0  0  0  0  0  0  0
    4.1196    1.8119   -1.8266 H   0  0  0  0  0  0  0  0  0  0  0  0
  1  2  1  0
  2  3  2  0
  3  4  1  0
  4  5  2  0
  5  6  1  0
  5  7  1  0
  7  8  2  0
  8  9  1  0
  9 10  2  0
  9 11  1  0
 11 12  1  0
 12 13  2  0
 13 14  1  0
 14 15  2  0
 15 16  1  0
 16 17  2  0
 17 18  1  0
 15 19  1  0
 19 20  1  0
 19 21  2  0
  8  2  1  0
 17 12  1  0
  1 22  1  0
  3 23  1  0
  4 24  1  0
  7 25  1  0
 11 26  1  0
 13 27  1  0
 14 28  1  0
 16 29  1  0
M  CHG  2  19   1  20  -1
M  END
>  <Energy>  (3) 
53.26201724111648

>  <Real charge>  (3) 
0

>  <Mult>  (3) 
1

$$$$
