mol_1058 53
     RDKit          3D

 15 15  0  0  0  0  0  0  0  0999 V2000
    2.2108    0.1664   -0.1369 C   0  0  0  0  0  0  0  0  0  0  0  0
    0.7165    0.0570   -0.0690 C   0  0  0  0  0  0  0  0  0  0  0  0
   -0.0692    1.1966    0.1433 C   0  0  0  0  0  0  0  0  0  0  0  0
   -1.4579    1.0904    0.2379 C   0  0  0  0  0  0  0  0  0  0  0  0
   -2.0717   -0.1563    0.1315 C   0  0  0  0  0  0  0  0  0  0  0  0
   -1.2970   -1.2979   -0.0652 C   0  0  0  0  0  0  0  0  0  0  0  0
    0.0918   -1.1930   -0.1599 C   0  0  0  0  0  0  0  0  0  0  0  0
    2.5132    1.1308   -0.5583 H   0  0  0  0  0  0  0  0  0  0  0  0
    2.6390    0.0680    0.8654 H   0  0  0  0  0  0  0  0  0  0  0  0
    2.6308   -0.6144   -0.7797 H   0  0  0  0  0  0  0  0  0  0  0  0
    0.3964    2.1751    0.2356 H   0  0  0  0  0  0  0  0  0  0  0  0
   -2.0604    1.9806    0.3974 H   0  0  0  0  0  0  0  0  0  0  0  0
   -3.1526   -0.2386    0.2061 H   0  0  0  0  0  0  0  0  0  0  0  0
   -1.7739   -2.2714   -0.1421 H   0  0  0  0  0  0  0  0  0  0  0  0
    0.6841   -2.0933   -0.3060 H   0  0  0  0  0  0  0  0  0  0  0  0
  1  2  1  0
  2  3  2  0
  3  4  1  0
  4  5  2  0
  5  6  1  0
  6  7  2  0
  7  2  1  0
  1  8  1  0
  1  9  1  0
  1 10  1  0
  3 11  1  0
  4 12  1  0
  5 13  1  0
  6 14  1  0
  7 15  1  0
M  END
>  <Energy>  (1) 
18.417429847014812

>  <Real charge>  (1) 
0

>  <Mult>  (1) 
1

$$$$
