mol_193 66
     RDKit          3D

 30 30  0  0  0  0  0  0  0  0999 V2000
    3.5228    2.2197   -0.2747 C   0  0  0  0  0  0  0  0  0  0  0  0
    3.0301    1.0680    0.4284 N   0  0  0  0  0  0  0  0  0  0  0  0
    2.1515    0.1938   -0.1530 C   0  0  0  0  0  0  0  0  0  0  0  0
    1.8275    0.2222   -1.3332 O   0  0  0  0  0  0  0  0  0  0  0  0
    1.7080   -0.7010    0.8044 O   0  0  0  0  0  0  0  0  0  0  0  0
    0.6955   -1.5410    0.3315 C   0  0  0  0  0  0  0  0  0  0  0  0
    1.0401   -2.8383   -0.0485 C   0  0  0  0  0  0  0  0  0  0  0  0
    0.0416   -3.7070   -0.4835 C   0  0  0  0  0  0  0  0  0  0  0  0
   -1.2880   -3.2810   -0.5148 C   0  0  0  0  0  0  0  0  0  0  0  0
   -1.6261   -1.9835   -0.1140 C   0  0  0  0  0  0  0  0  0  0  0  0
   -0.6314   -1.0976    0.3022 C   0  0  0  0  0  0  0  0  0  0  0  0
   -0.8872    0.1666    0.7604 O   0  0  0  0  0  0  0  0  0  0  0  0
   -1.8162    0.9329   -0.0192 C   0  0  0  0  0  0  0  0  0  0  0  0
   -1.1503    2.2697   -0.3346 C   0  0  0  0  0  0  0  0  0  0  0  0
   -3.0776    1.1555    0.8086 C   0  0  0  0  0  0  0  0  0  0  0  0
    3.7726    1.9579   -1.3064 H   0  0  0  0  0  0  0  0  0  0  0  0
    2.7459    2.9888   -0.2740 H   0  0  0  0  0  0  0  0  0  0  0  0
    4.4107    2.5903    0.2424 H   0  0  0  0  0  0  0  0  0  0  0  0
    3.0712    1.0322    1.4374 H   0  0  0  0  0  0  0  0  0  0  0  0
    2.0745   -3.1649   -0.0110 H   0  0  0  0  0  0  0  0  0  0  0  0
    0.2965   -4.7178   -0.7911 H   0  0  0  0  0  0  0  0  0  0  0  0
   -2.0671   -3.9653   -0.8423 H   0  0  0  0  0  0  0  0  0  0  0  0
   -2.6711   -1.6923   -0.1162 H   0  0  0  0  0  0  0  0  0  0  0  0
   -2.0698    0.4494   -0.9710 H   0  0  0  0  0  0  0  0  0  0  0  0
   -1.8231    2.9269   -0.8941 H   0  0  0  0  0  0  0  0  0  0  0  0
   -0.8388    2.7818    0.5825 H   0  0  0  0  0  0  0  0  0  0  0  0
   -0.2451    2.1142   -0.9304 H   0  0  0  0  0  0  0  0  0  0  0  0
   -3.5500    0.2021    1.0652 H   0  0  0  0  0  0  0  0  0  0  0  0
   -2.8418    1.6513    1.7570 H   0  0  0  0  0  0  0  0  0  0  0  0
   -3.8050    1.7668    0.2657 H   0  0  0  0  0  0  0  0  0  0  0  0
  1  2  1  0
  2  3  1  0
  3  4  2  0
  3  5  1  0
  5  6  1  0
  6  7  2  0
  7  8  1  0
  8  9  2  0
  9 10  1  0
 10 11  2  0
 11 12  1  0
 12 13  1  0
 13 14  1  0
 13 15  1  0
 11  6  1  0
  1 16  1  0
  1 17  1  0
  1 18  1  0
  2 19  1  0
  7 20  1  0
  8 21  1  0
  9 22  1  0
 10 23  1  0
 13 24  1  0
 14 25  1  0
 14 26  1  0
 14 27  1  0
 15 28  1  0
 15 29  1  0
 15 30  1  0
M  END
>  <Energy>  (1) 
-4.9303362767615795

>  <Real charge>  (1) 
0

>  <Mult>  (1) 
1

$$$$
mol_193 75
     RDKit          3D

 30 30  0  0  0  0  0  0  0  0999 V2000
    2.6246    2.2568   -2.4379 C   0  0  0  0  0  0  0  0  0  0  0  0
    1.9994    0.9662   -2.3508 N   0  0  0  0  0  0  0  0  0  0  0  0
    1.7093    0.3822   -1.1482 C   0  0  0  0  0  0  0  0  0  0  0  0
    2.0470    0.8302   -0.0609 O   0  0  0  0  0  0  0  0  0  0  0  0
    0.9668   -0.7631   -1.3716 O   0  0  0  0  0  0  0  0  0  0  0  0
    0.6235   -1.4456   -0.2015 C   0  0  0  0  0  0  0  0  0  0  0  0
    1.5580   -2.3025    0.3827 C   0  0  0  0  0  0  0  0  0  0  0  0
    1.1947   -3.0506    1.5027 C   0  0  0  0  0  0  0  0  0  0  0  0
   -0.1017   -2.9592    2.0152 C   0  0  0  0  0  0  0  0  0  0  0  0
   -1.0376   -2.1139    1.4141 C   0  0  0  0  0  0  0  0  0  0  0  0
   -0.6698   -1.3405    0.3141 C   0  0  0  0  0  0  0  0  0  0  0  0
   -1.6162   -0.5550   -0.2868 O   0  0  0  0  0  0  0  0  0  0  0  0
   -1.5842    0.7932    0.2147 C   0  0  0  0  0  0  0  0  0  0  0  0
   -2.7330    0.9900    1.2004 C   0  0  0  0  0  0  0  0  0  0  0  0
   -1.7566    1.7252   -0.9811 C   0  0  0  0  0  0  0  0  0  0  0  0
    1.8619    3.0247   -2.2842 H   0  0  0  0  0  0  0  0  0  0  0  0
    3.0627    2.3652   -3.4326 H   0  0  0  0  0  0  0  0  0  0  0  0
    3.4005    2.3580   -1.6743 H   0  0  0  0  0  0  0  0  0  0  0  0
    1.5326    0.5703   -3.1552 H   0  0  0  0  0  0  0  0  0  0  0  0
    2.5587   -2.3882   -0.0296 H   0  0  0  0  0  0  0  0  0  0  0  0
    1.9180   -3.7143    1.9697 H   0  0  0  0  0  0  0  0  0  0  0  0
   -0.3867   -3.5551    2.8787 H   0  0  0  0  0  0  0  0  0  0  0  0
   -2.0513   -2.0658    1.8003 H   0  0  0  0  0  0  0  0  0  0  0  0
   -0.6339    1.0294    0.7112 H   0  0  0  0  0  0  0  0  0  0  0  0
   -3.6909    0.7091    0.7489 H   0  0  0  0  0  0  0  0  0  0  0  0
   -2.7932    2.0299    1.5362 H   0  0  0  0  0  0  0  0  0  0  0  0
   -2.6020    0.3554    2.0823 H   0  0  0  0  0  0  0  0  0  0  0  0
   -0.9598    1.5655   -1.7140 H   0  0  0  0  0  0  0  0  0  0  0  0
   -2.7012    1.5275   -1.5000 H   0  0  0  0  0  0  0  0  0  0  0  0
   -1.7396    2.7749   -0.6724 H   0  0  0  0  0  0  0  0  0  0  0  0
  1  2  1  0
  2  3  1  0
  3  4  2  0
  3  5  1  0
  5  6  1  0
  6  7  2  0
  7  8  1  0
  8  9  2  0
  9 10  1  0
 10 11  2  0
 11 12  1  0
 12 13  1  0
 13 14  1  0
 13 15  1  0
 11  6  1  0
  1 16  1  0
  1 17  1  0
  1 18  1  0
  2 19  1  0
  7 20  1  0
  8 21  1  0
  9 22  1  0
 10 23  1  0
 13 24  1  0
 14 25  1  0
 14 26  1  0
 14 27  1  0
 15 28  1  0
 15 29  1  0
 15 30  1  0
M  END
>  <Energy>  (2) 
-4.533395536887655

>  <Real charge>  (2) 
0

>  <Mult>  (2) 
1

$$$$
mol_193 199
     RDKit          3D

 30 30  0  0  0  0  0  0  0  0999 V2000
    3.0580   -2.0563   -1.8385 C   0  0  0  0  0  0  0  0  0  0  0  0
    2.5527   -0.7122   -1.8023 N   0  0  0  0  0  0  0  0  0  0  0  0
    1.9859   -0.1888   -0.6711 C   0  0  0  0  0  0  0  0  0  0  0  0
    1.9889   -0.7403    0.4217 O   0  0  0  0  0  0  0  0  0  0  0  0
    1.4291    1.0412   -0.9755 O   0  0  0  0  0  0  0  0  0  0  0  0
    0.6996    1.5857    0.0872 C   0  0  0  0  0  0  0  0  0  0  0  0
    1.3010    2.5907    0.8455 C   0  0  0  0  0  0  0  0  0  0  0  0
    0.5855    3.1738    1.8873 C   0  0  0  0  0  0  0  0  0  0  0  0
   -0.7228    2.7621    2.1473 C   0  0  0  0  0  0  0  0  0  0  0  0
   -1.3241    1.7651    1.3683 C   0  0  0  0  0  0  0  0  0  0  0  0
   -0.6139    1.1615    0.3304 C   0  0  0  0  0  0  0  0  0  0  0  0
   -1.1137    0.2084   -0.5143 O   0  0  0  0  0  0  0  0  0  0  0  0
   -2.0918   -0.7036   -0.0009 C   0  0  0  0  0  0  0  0  0  0  0  0
   -1.4515   -1.7064    0.9565 C   0  0  0  0  0  0  0  0  0  0  0  0
   -2.6707   -1.4386   -1.2086 C   0  0  0  0  0  0  0  0  0  0  0  0
    3.7187   -2.1571   -2.7025 H   0  0  0  0  0  0  0  0  0  0  0  0
    3.6064   -2.2819   -0.9200 H   0  0  0  0  0  0  0  0  0  0  0  0
    2.2144   -2.7448   -1.9353 H   0  0  0  0  0  0  0  0  0  0  0  0
    2.3269   -0.2303   -2.6612 H   0  0  0  0  0  0  0  0  0  0  0  0
    2.3165    2.9077    0.6304 H   0  0  0  0  0  0  0  0  0  0  0  0
    1.0429    3.9510    2.4939 H   0  0  0  0  0  0  0  0  0  0  0  0
   -1.2833    3.2254    2.9560 H   0  0  0  0  0  0  0  0  0  0  0  0
   -2.3518    1.5000    1.5877 H   0  0  0  0  0  0  0  0  0  0  0  0
   -2.9200   -0.1763    0.4828 H   0  0  0  0  0  0  0  0  0  0  0  0
   -1.0502   -1.2062    1.8436 H   0  0  0  0  0  0  0  0  0  0  0  0
   -2.1783   -2.4542    1.2889 H   0  0  0  0  0  0  0  0  0  0  0  0
   -0.6116   -2.2224    0.4785 H   0  0  0  0  0  0  0  0  0  0  0  0
   -3.1205   -0.7254   -1.9081 H   0  0  0  0  0  0  0  0  0  0  0  0
   -1.8860   -1.9679   -1.7607 H   0  0  0  0  0  0  0  0  0  0  0  0
   -3.4363   -2.1600   -0.9071 H   0  0  0  0  0  0  0  0  0  0  0  0
  1  2  1  0
  2  3  1  0
  3  4  2  0
  3  5  1  0
  5  6  1  0
  6  7  2  0
  7  8  1  0
  8  9  2  0
  9 10  1  0
 10 11  2  0
 11 12  1  0
 12 13  1  0
 13 14  1  0
 13 15  1  0
 11  6  1  0
  1 16  1  0
  1 17  1  0
  1 18  1  0
  2 19  1  0
  7 20  1  0
  8 21  1  0
  9 22  1  0
 10 23  1  0
 13 24  1  0
 14 25  1  0
 14 26  1  0
 14 27  1  0
 15 28  1  0
 15 29  1  0
 15 30  1  0
M  END
>  <Energy>  (3) 
-4.328860248013522

>  <Real charge>  (3) 
0

>  <Mult>  (3) 
1

$$$$
