mol_1109 18
     RDKit          3D

  9  8  0  0  0  0  0  0  0  0999 V2000
    1.0785    0.1919    0.3003 C   0  0  0  0  0  0  0  0  0  0  0  0
   -0.1236   -0.1613   -0.5124 C   0  0  0  0  0  0  0  0  0  0  0  0
   -1.3778   -0.1464   -0.0448 C   0  0  0  0  0  0  0  0  0  0  0  0
    1.7659   -0.6587    0.3381 H   0  0  0  0  0  0  0  0  0  0  0  0
    0.8170    0.4658    1.3274 H   0  0  0  0  0  0  0  0  0  0  0  0
    1.6017    1.0376   -0.1561 H   0  0  0  0  0  0  0  0  0  0  0  0
    0.0527   -0.4458   -1.5475 H   0  0  0  0  0  0  0  0  0  0  0  0
   -2.2125   -0.4139   -0.6856 H   0  0  0  0  0  0  0  0  0  0  0  0
   -1.6020    0.1307    0.9806 H   0  0  0  0  0  0  0  0  0  0  0  0
  1  2  1  0
  2  3  2  3
  1  4  1  0
  1  5  1  0
  1  6  1  0
  2  7  1  0
  3  8  1  0
  3  9  1  0
M  END
>  <Energy>  (1) 
6.483208514618724

>  <Real charge>  (1) 
0

>  <Mult>  (1) 
1

$$$$
