mol_225 64
     RDKit          3D

 18 19  0  0  0  0  0  0  0  0999 V2000
    3.0675    0.5001    0.9915 C   0  0  0  0  0  0  0  0  0  0  0  0
    2.7085   -0.1346   -0.2320 O   0  0  0  0  0  0  0  0  0  0  0  0
    1.3480   -0.2244   -0.4179 C   0  0  0  0  0  0  0  0  0  0  0  0
    0.8925   -0.8245   -1.5757 C   0  0  0  0  0  0  0  0  0  0  0  0
   -0.4265   -0.9648   -1.8585 N   0  0  0  0  0  0  0  0  0  0  0  0
   -1.3033   -0.4952   -0.9647 C   0  0  0  0  0  0  0  0  0  0  0  0
   -2.6011   -0.6290   -1.2346 N   0  0  0  0  0  0  0  0  0  0  0  0
   -3.4653   -0.1550   -0.3321 C   0  0  0  0  0  0  0  0  0  0  0  0
   -3.1438    0.4422    0.8188 N   0  0  0  0  0  0  0  0  0  0  0  0
   -1.8192    0.5569    1.0524 C   0  0  0  0  0  0  0  0  0  0  0  0
   -0.8246    0.1139    0.2108 C   0  0  0  0  0  0  0  0  0  0  0  0
    0.4954    0.2598    0.5042 N   0  0  0  0  0  0  0  0  0  0  0  0
    2.7019   -0.0670    1.8546 H   0  0  0  0  0  0  0  0  0  0  0  0
    2.7102    1.5354    1.0208 H   0  0  0  0  0  0  0  0  0  0  0  0
    4.1602    0.5233    1.0468 H   0  0  0  0  0  0  0  0  0  0  0  0
    1.5800   -1.2142   -2.3180 H   0  0  0  0  0  0  0  0  0  0  0  0
   -4.5213   -0.2657   -0.5552 H   0  0  0  0  0  0  0  0  0  0  0  0
   -1.5590    1.0428    1.9888 H   0  0  0  0  0  0  0  0  0  0  0  0
  1  2  1  0
  2  3  1  0
  3  4  2  0
  4  5  1  0
  5  6  2  0
  6  7  1  0
  7  8  2  0
  8  9  1  0
  9 10  2  0
 10 11  1  0
 11 12  2  0
 11  6  1  0
 12  3  1  0
  1 13  1  0
  1 14  1  0
  1 15  1  0
  4 16  1  0
  8 17  1  0
 10 18  1  0
M  END
>  <Energy>  (1) 
61.592862645744084

>  <Real charge>  (1) 
0

>  <Mult>  (1) 
1

$$$$
