mol_735 296
     RDKit          3D

 29 28  0  0  0  0  0  0  0  0999 V2000
   -5.0350    0.1115    0.5234 C   0  0  0  0  0  0  0  0  0  0  0  0
   -3.7951   -0.3568   -0.2214 C   0  0  0  0  0  0  0  0  0  0  0  0
   -2.5169    0.1615    0.4373 C   0  0  0  0  0  0  0  0  0  0  0  0
   -1.2720   -0.3119   -0.3149 C   0  0  0  0  0  0  0  0  0  0  0  0
    0.0071    0.2067    0.3443 C   0  0  0  0  0  0  0  0  0  0  0  0
    1.2520   -0.2666   -0.4080 C   0  0  0  0  0  0  0  0  0  0  0  0
    2.5312    0.2520    0.2511 C   0  0  0  0  0  0  0  0  0  0  0  0
    3.7751   -0.2211   -0.5006 C   0  0  0  0  0  0  0  0  0  0  0  0
    5.0489    0.2923    0.1515 C   0  0  0  0  0  0  0  0  0  0  0  0
   -5.9371   -0.2704    0.0354 H   0  0  0  0  0  0  0  0  0  0  0  0
   -5.0939    1.2045    0.5388 H   0  0  0  0  0  0  0  0  0  0  0  0
   -5.0303   -0.2473    1.5576 H   0  0  0  0  0  0  0  0  0  0  0  0
   -3.7832   -1.4527   -0.2465 H   0  0  0  0  0  0  0  0  0  0  0  0
   -3.8465   -0.0089   -1.2597 H   0  0  0  0  0  0  0  0  0  0  0  0
   -2.5357    1.2578    0.4636 H   0  0  0  0  0  0  0  0  0  0  0  0
   -2.4724   -0.1859    1.4768 H   0  0  0  0  0  0  0  0  0  0  0  0
   -1.2533   -1.4082   -0.3410 H   0  0  0  0  0  0  0  0  0  0  0  0
   -1.3166    0.0357   -1.3542 H   0  0  0  0  0  0  0  0  0  0  0  0
    0.0517   -0.1408    1.3836 H   0  0  0  0  0  0  0  0  0  0  0  0
   -0.0115    1.3031    0.3704 H   0  0  0  0  0  0  0  0  0  0  0  0
    1.2075    0.0809   -1.4473 H   0  0  0  0  0  0  0  0  0  0  0  0
    1.2707   -1.3630   -0.4341 H   0  0  0  0  0  0  0  0  0  0  0  0
    2.5126    1.3483    0.2775 H   0  0  0  0  0  0  0  0  0  0  0  0
    2.5758   -0.0954    1.2906 H   0  0  0  0  0  0  0  0  0  0  0  0
    3.7374    0.1271   -1.5394 H   0  0  0  0  0  0  0  0  0  0  0  0
    3.8007   -1.3167   -0.5262 H   0  0  0  0  0  0  0  0  0  0  0  0
    5.9258   -0.0578   -0.4021 H   0  0  0  0  0  0  0  0  0  0  0  0
    5.0697    1.3867    0.1640 H   0  0  0  0  0  0  0  0  0  0  0  0
    5.1333   -0.0650    1.1827 H   0  0  0  0  0  0  0  0  0  0  0  0
  1  2  1  0
  2  3  1  0
  3  4  1  0
  4  5  1  0
  5  6  1  0
  6  7  1  0
  7  8  1  0
  8  9  1  0
  1 10  1  0
  1 11  1  0
  1 12  1  0
  2 13  1  0
  2 14  1  0
  3 15  1  0
  3 16  1  0
  4 17  1  0
  4 18  1  0
  5 19  1  0
  5 20  1  0
  6 21  1  0
  6 22  1  0
  7 23  1  0
  7 24  1  0
  8 25  1  0
  8 26  1  0
  9 27  1  0
  9 28  1  0
  9 29  1  0
M  END
>  <Energy>  (1) 
-6.092421025728732

>  <Real charge>  (1) 
0

>  <Mult>  (1) 
1

$$$$
mol_735 404
     RDKit          3D

 29 28  0  0  0  0  0  0  0  0999 V2000
    4.4080   -0.6574   -0.0246 C   0  0  0  0  0  0  0  0  0  0  0  0
    3.8750    0.6862   -0.4974 C   0  0  0  0  0  0  0  0  0  0  0  0
    2.5103    1.0450    0.0945 C   0  0  0  0  0  0  0  0  0  0  0  0
    1.3869    0.1114   -0.3619 C   0  0  0  0  0  0  0  0  0  0  0  0
    0.0297    0.5760    0.1713 C   0  0  0  0  0  0  0  0  0  0  0  0
   -1.0948   -0.3573   -0.2806 C   0  0  0  0  0  0  0  0  0  0  0  0
   -2.4513    0.1073    0.2520 C   0  0  0  0  0  0  0  0  0  0  0  0
   -3.5749   -0.8253   -0.1996 C   0  0  0  0  0  0  0  0  0  0  0  0
   -4.9252   -0.3669    0.3278 C   0  0  0  0  0  0  0  0  0  0  0  0
    3.7909   -1.4844   -0.3876 H   0  0  0  0  0  0  0  0  0  0  0  0
    5.4237   -0.8122   -0.4026 H   0  0  0  0  0  0  0  0  0  0  0  0
    4.4428   -0.7041    1.0684 H   0  0  0  0  0  0  0  0  0  0  0  0
    4.5924    1.4649   -0.2119 H   0  0  0  0  0  0  0  0  0  0  0  0
    3.8203    0.6923   -1.5922 H   0  0  0  0  0  0  0  0  0  0  0  0
    2.2669    2.0720   -0.2050 H   0  0  0  0  0  0  0  0  0  0  0  0
    2.5723    1.0419    1.1896 H   0  0  0  0  0  0  0  0  0  0  0  0
    1.3587    0.0784   -1.4577 H   0  0  0  0  0  0  0  0  0  0  0  0
    1.5799   -0.9083   -0.0103 H   0  0  0  0  0  0  0  0  0  0  0  0
    0.0590    0.6125    1.2672 H   0  0  0  0  0  0  0  0  0  0  0  0
   -0.1748    1.5943   -0.1811 H   0  0  0  0  0  0  0  0  0  0  0  0
   -1.1234   -0.3941   -1.3764 H   0  0  0  0  0  0  0  0  0  0  0  0
   -0.8911   -1.3757    0.0720 H   0  0  0  0  0  0  0  0  0  0  0  0
   -2.6553    1.1258   -0.1005 H   0  0  0  0  0  0  0  0  0  0  0  0
   -2.4228    0.1444    1.3478 H   0  0  0  0  0  0  0  0  0  0  0  0
   -3.6105   -0.8627   -1.2946 H   0  0  0  0  0  0  0  0  0  0  0  0
   -3.3780   -1.8442    0.1537 H   0  0  0  0  0  0  0  0  0  0  0  0
   -4.9335   -0.3494    1.4223 H   0  0  0  0  0  0  0  0  0  0  0  0
   -5.7139   -1.0479   -0.0070 H   0  0  0  0  0  0  0  0  0  0  0  0
   -5.1673    0.6375   -0.0341 H   0  0  0  0  0  0  0  0  0  0  0  0
  1  2  1  0
  2  3  1  0
  3  4  1  0
  4  5  1  0
  5  6  1  0
  6  7  1  0
  7  8  1  0
  8  9  1  0
  1 10  1  0
  1 11  1  0
  1 12  1  0
  2 13  1  0
  2 14  1  0
  3 15  1  0
  3 16  1  0
  4 17  1  0
  4 18  1  0
  5 19  1  0
  5 20  1  0
  6 21  1  0
  6 22  1  0
  7 23  1  0
  7 24  1  0
  8 25  1  0
  8 26  1  0
  9 27  1  0
  9 28  1  0
  9 29  1  0
M  END
>  <Energy>  (2) 
-5.268789810526382

>  <Real charge>  (2) 
0

>  <Mult>  (2) 
1

$$$$
mol_735 225
     RDKit          3D

 29 28  0  0  0  0  0  0  0  0999 V2000
    4.7354    0.5629    0.1786 C   0  0  0  0  0  0  0  0  0  0  0  0
    3.2719    0.8365    0.4865 C   0  0  0  0  0  0  0  0  0  0  0  0
    2.3985   -0.3803    0.1814 C   0  0  0  0  0  0  0  0  0  0  0  0
    0.9263   -0.1010    0.4931 C   0  0  0  0  0  0  0  0  0  0  0  0
    0.0539   -1.3195    0.1831 C   0  0  0  0  0  0  0  0  0  0  0  0
   -1.4128   -1.1362    0.5833 C   0  0  0  0  0  0  0  0  0  0  0  0
   -2.1353   -0.0588   -0.2284 C   0  0  0  0  0  0  0  0  0  0  0  0
   -3.6207    0.0014    0.1307 C   0  0  0  0  0  0  0  0  0  0  0  0
   -4.3444    1.0726   -0.6696 C   0  0  0  0  0  0  0  0  0  0  0  0
    5.3416    1.4458    0.4039 H   0  0  0  0  0  0  0  0  0  0  0  0
    5.1134   -0.2709    0.7789 H   0  0  0  0  0  0  0  0  0  0  0  0
    4.8744    0.3161   -0.8788 H   0  0  0  0  0  0  0  0  0  0  0  0
    2.9345    1.6952   -0.1055 H   0  0  0  0  0  0  0  0  0  0  0  0
    3.1720    1.1112    1.5430 H   0  0  0  0  0  0  0  0  0  0  0  0
    2.7436   -1.2371    0.7728 H   0  0  0  0  0  0  0  0  0  0  0  0
    2.5046   -0.6533   -0.8756 H   0  0  0  0  0  0  0  0  0  0  0  0
    0.5932    0.7599   -0.0971 H   0  0  0  0  0  0  0  0  0  0  0  0
    0.8200    0.1680    1.5509 H   0  0  0  0  0  0  0  0  0  0  0  0
    0.4487   -2.1888    0.7236 H   0  0  0  0  0  0  0  0  0  0  0  0
    0.1165   -1.5578   -0.8857 H   0  0  0  0  0  0  0  0  0  0  0  0
   -1.4754   -0.8991    1.6524 H   0  0  0  0  0  0  0  0  0  0  0  0
   -1.9269   -2.0952    0.4424 H   0  0  0  0  0  0  0  0  0  0  0  0
   -2.0250   -0.2688   -1.2992 H   0  0  0  0  0  0  0  0  0  0  0  0
   -1.6822    0.9209   -0.0405 H   0  0  0  0  0  0  0  0  0  0  0  0
   -4.0908   -0.9699   -0.0624 H   0  0  0  0  0  0  0  0  0  0  0  0
   -3.7367    0.2115    1.2004 H   0  0  0  0  0  0  0  0  0  0  0  0
   -5.4043    1.0978   -0.3975 H   0  0  0  0  0  0  0  0  0  0  0  0
   -4.2740    0.8744   -1.7438 H   0  0  0  0  0  0  0  0  0  0  0  0
   -3.9199    2.0625   -0.4740 H   0  0  0  0  0  0  0  0  0  0  0  0
  1  2  1  0
  2  3  1  0
  3  4  1  0
  4  5  1  0
  5  6  1  0
  6  7  1  0
  7  8  1  0
  8  9  1  0
  1 10  1  0
  1 11  1  0
  1 12  1  0
  2 13  1  0
  2 14  1  0
  3 15  1  0
  3 16  1  0
  4 17  1  0
  4 18  1  0
  5 19  1  0
  5 20  1  0
  6 21  1  0
  6 22  1  0
  7 23  1  0
  7 24  1  0
  8 25  1  0
  8 26  1  0
  9 27  1  0
  9 28  1  0
  9 29  1  0
M  END
>  <Energy>  (3) 
-5.2225223012753785

>  <Real charge>  (3) 
0

>  <Mult>  (3) 
1

$$$$
mol_735 238
     RDKit          3D

 29 28  0  0  0  0  0  0  0  0999 V2000
   -4.6158   -0.6103    0.6449 C   0  0  0  0  0  0  0  0  0  0  0  0
   -3.2126   -0.0291    0.5597 C   0  0  0  0  0  0  0  0  0  0  0  0
   -2.6627   -0.1076   -0.8650 C   0  0  0  0  0  0  0  0  0  0  0  0
   -1.2980    0.5674   -1.0290 C   0  0  0  0  0  0  0  0  0  0  0  0
   -0.1771   -0.1307   -0.2556 C   0  0  0  0  0  0  0  0  0  0  0  0
    1.1803    0.5143   -0.5453 C   0  0  0  0  0  0  0  0  0  0  0  0
    2.3025   -0.1790    0.2293 C   0  0  0  0  0  0  0  0  0  0  0  0
    3.6581    0.4649   -0.0605 C   0  0  0  0  0  0  0  0  0  0  0  0
    4.7764   -0.2213    0.7076 C   0  0  0  0  0  0  0  0  0  0  0  0
   -5.3080   -0.0620   -0.0020 H   0  0  0  0  0  0  0  0  0  0  0  0
   -4.9899   -0.5484    1.6717 H   0  0  0  0  0  0  0  0  0  0  0  0
   -4.6233   -1.6626    0.3433 H   0  0  0  0  0  0  0  0  0  0  0  0
   -2.5641   -0.5793    1.2496 H   0  0  0  0  0  0  0  0  0  0  0  0
   -3.2353    1.0145    0.8939 H   0  0  0  0  0  0  0  0  0  0  0  0
   -3.3690    0.3804   -1.5483 H   0  0  0  0  0  0  0  0  0  0  0  0
   -2.5945   -1.1563   -1.1789 H   0  0  0  0  0  0  0  0  0  0  0  0
   -1.3666    1.6165   -0.7161 H   0  0  0  0  0  0  0  0  0  0  0  0
   -1.0463    0.5726   -2.0969 H   0  0  0  0  0  0  0  0  0  0  0  0
   -0.1454   -1.1916   -0.5313 H   0  0  0  0  0  0  0  0  0  0  0  0
   -0.3747   -0.0795    0.8208 H   0  0  0  0  0  0  0  0  0  0  0  0
    1.3903    0.4620   -1.6206 H   0  0  0  0  0  0  0  0  0  0  0  0
    1.1476    1.5763   -0.2732 H   0  0  0  0  0  0  0  0  0  0  0  0
    2.0935   -0.1268    1.3047 H   0  0  0  0  0  0  0  0  0  0  0  0
    2.3346   -1.2412   -0.0424 H   0  0  0  0  0  0  0  0  0  0  0  0
    3.6326    1.5261    0.2131 H   0  0  0  0  0  0  0  0  0  0  0  0
    3.8740    0.4116   -1.1340 H   0  0  0  0  0  0  0  0  0  0  0  0
    5.7364    0.2549    0.4856 H   0  0  0  0  0  0  0  0  0  0  0  0
    4.8499   -1.2784    0.4328 H   0  0  0  0  0  0  0  0  0  0  0  0
    4.6071   -0.1577    1.7873 H   0  0  0  0  0  0  0  0  0  0  0  0
  1  2  1  0
  2  3  1  0
  3  4  1  0
  4  5  1  0
  5  6  1  0
  6  7  1  0
  7  8  1  0
  8  9  1  0
  1 10  1  0
  1 11  1  0
  1 12  1  0
  2 13  1  0
  2 14  1  0
  3 15  1  0
  3 16  1  0
  4 17  1  0
  4 18  1  0
  5 19  1  0
  5 20  1  0
  6 21  1  0
  6 22  1  0
  7 23  1  0
  7 24  1  0
  8 25  1  0
  8 26  1  0
  9 27  1  0
  9 28  1  0
  9 29  1  0
M  END
>  <Energy>  (4) 
-5.218394733598308

>  <Real charge>  (4) 
0

>  <Mult>  (4) 
1

$$$$
