mol_1023 25
     RDKit          3D

 24 25  0  0  0  0  0  0  0  0999 V2000
   -0.3543   -0.4726    0.3103 N   0  0  0  0  0  0  0  0  0  0  0  0
    0.3533    0.4883   -0.0653 N   0  0  0  0  0  0  0  0  0  0  0  0
    1.7195    0.1897    0.0893 C   0  0  0  0  0  0  0  0  0  0  0  0
    2.2830   -0.0725    1.3457 C   0  0  0  0  0  0  0  0  0  0  0  0
    3.6490   -0.3351    1.4725 C   0  0  0  0  0  0  0  0  0  0  0  0
    4.4662   -0.3281    0.3431 C   0  0  0  0  0  0  0  0  0  0  0  0
    3.9201   -0.0559   -0.9104 C   0  0  0  0  0  0  0  0  0  0  0  0
    2.5535    0.2061   -1.0338 C   0  0  0  0  0  0  0  0  0  0  0  0
   -1.7203   -0.1787    0.1441 C   0  0  0  0  0  0  0  0  0  0  0  0
   -2.4994   -0.9971   -0.6807 C   0  0  0  0  0  0  0  0  0  0  0  0
   -3.8649   -0.7513   -0.8434 C   0  0  0  0  0  0  0  0  0  0  0  0
   -4.4652    0.3132   -0.1725 C   0  0  0  0  0  0  0  0  0  0  0  0
   -3.7033    1.1290    0.6627 C   0  0  0  0  0  0  0  0  0  0  0  0
   -2.3382    0.8803    0.8233 C   0  0  0  0  0  0  0  0  0  0  0  0
    1.6495   -0.0725    2.2288 H   0  0  0  0  0  0  0  0  0  0  0  0
    4.0731   -0.5426    2.4514 H   0  0  0  0  0  0  0  0  0  0  0  0
    5.5296   -0.5321    0.4403 H   0  0  0  0  0  0  0  0  0  0  0  0
    4.5563   -0.0456   -1.7916 H   0  0  0  0  0  0  0  0  0  0  0  0
    2.1305    0.4223   -2.0114 H   0  0  0  0  0  0  0  0  0  0  0  0
   -2.0342   -1.8301   -1.2013 H   0  0  0  0  0  0  0  0  0  0  0  0
   -4.4580   -1.3912   -1.4914 H   0  0  0  0  0  0  0  0  0  0  0  0
   -5.5278    0.5054   -0.2983 H   0  0  0  0  0  0  0  0  0  0  0  0
   -4.1698    1.9568    1.1902 H   0  0  0  0  0  0  0  0  0  0  0  0
   -1.7481    1.5142    1.4798 H   0  0  0  0  0  0  0  0  0  0  0  0
  1  2  2  3
  2  3  1  0
  3  4  2  0
  4  5  1  0
  5  6  2  0
  6  7  1  0
  7  8  2  0
  1  9  1  0
  9 10  2  0
 10 11  1  0
 11 12  2  0
 12 13  1  0
 13 14  2  0
  8  3  1  0
 14  9  1  0
  4 15  1  0
  5 16  1  0
  6 17  1  0
  7 18  1  0
  8 19  1  0
 10 20  1  0
 11 21  1  0
 12 22  1  0
 13 23  1  0
 14 24  1  0
M  END
>  <Energy>  (1) 
40.56331397125801

>  <Real charge>  (1) 
0

>  <Mult>  (1) 
1

$$$$
mol_1023 66
     RDKit          3D

 24 25  0  0  0  0  0  0  0  0999 V2000
    0.2829    0.1632    0.5413 N   0  0  0  0  0  0  0  0  0  0  0  0
   -0.2805   -0.1537   -0.5303 N   0  0  0  0  0  0  0  0  0  0  0  0
   -1.6781   -0.1160   -0.3778 C   0  0  0  0  0  0  0  0  0  0  0  0
   -2.3630    1.0939   -0.2048 C   0  0  0  0  0  0  0  0  0  0  0  0
   -3.7544    1.1125   -0.0856 C   0  0  0  0  0  0  0  0  0  0  0  0
   -4.4736   -0.0803   -0.1479 C   0  0  0  0  0  0  0  0  0  0  0  0
   -3.8039   -1.2893   -0.3324 C   0  0  0  0  0  0  0  0  0  0  0  0
   -2.4122   -1.3046   -0.4512 C   0  0  0  0  0  0  0  0  0  0  0  0
    1.6794    0.1220    0.3848 C   0  0  0  0  0  0  0  0  0  0  0  0
    2.3664   -1.0968    0.3165 C   0  0  0  0  0  0  0  0  0  0  0  0
    3.7571   -1.1221    0.1909 C   0  0  0  0  0  0  0  0  0  0  0  0
    4.4727    0.0735    0.1416 C   0  0  0  0  0  0  0  0  0  0  0  0
    3.8004    1.2925    0.2209 C   0  0  0  0  0  0  0  0  0  0  0  0
    2.4095    1.3147    0.3464 C   0  0  0  0  0  0  0  0  0  0  0  0
   -1.8040    2.0248   -0.1623 H   0  0  0  0  0  0  0  0  0  0  0  0
   -4.2747    2.0564    0.0536 H   0  0  0  0  0  0  0  0  0  0  0  0
   -5.5567   -0.0674   -0.0554 H   0  0  0  0  0  0  0  0  0  0  0  0
   -4.3634   -2.2196   -0.3854 H   0  0  0  0  0  0  0  0  0  0  0  0
   -1.8922   -2.2471   -0.5992 H   0  0  0  0  0  0  0  0  0  0  0  0
    1.8093   -2.0287    0.3604 H   0  0  0  0  0  0  0  0  0  0  0  0
    4.2797   -2.0733    0.1336 H   0  0  0  0  0  0  0  0  0  0  0  0
    5.5554    0.0552    0.0440 H   0  0  0  0  0  0  0  0  0  0  0  0
    4.3572    2.2252    0.1865 H   0  0  0  0  0  0  0  0  0  0  0  0
    1.8868    2.2651    0.4118 H   0  0  0  0  0  0  0  0  0  0  0  0
  1  2  2  3
  2  3  1  0
  3  4  2  0
  4  5  1  0
  5  6  2  0
  6  7  1  0
  7  8  2  0
  1  9  1  0
  9 10  2  0
 10 11  1  0
 11 12  2  0
 12 13  1  0
 13 14  2  0
  8  3  1  0
 14  9  1  0
  4 15  1  0
  5 16  1  0
  6 17  1  0
  7 18  1  0
  8 19  1  0
 10 20  1  0
 11 21  1  0
 12 22  1  0
 13 23  1  0
 14 24  1  0
M  END
>  <Energy>  (2) 
40.68073881402458

>  <Real charge>  (2) 
0

>  <Mult>  (2) 
1

$$$$
