mol_768 413
     RDKit          3D

 26 25  0  0  0  0  0  0  0  0999 V2000
    4.4307   -0.1764    0.2021 C   0  0  0  0  0  0  0  0  0  0  0  0
    3.1095    0.3911    0.6960 C   0  0  0  0  0  0  0  0  0  0  0  0
    1.9215   -0.2519   -0.0192 C   0  0  0  0  0  0  0  0  0  0  0  0
    0.5945    0.3217    0.4805 C   0  0  0  0  0  0  0  0  0  0  0  0
   -0.5945   -0.3217   -0.2351 C   0  0  0  0  0  0  0  0  0  0  0  0
   -1.9215    0.2519    0.2646 C   0  0  0  0  0  0  0  0  0  0  0  0
   -3.1095   -0.3911   -0.4506 C   0  0  0  0  0  0  0  0  0  0  0  0
   -4.4307    0.1764    0.0433 C   0  0  0  0  0  0  0  0  0  0  0  0
    4.4854   -1.2551    0.3801 H   0  0  0  0  0  0  0  0  0  0  0  0
    5.2664    0.2972    0.7267 H   0  0  0  0  0  0  0  0  0  0  0  0
    4.5578    0.0020   -0.8704 H   0  0  0  0  0  0  0  0  0  0  0  0
    3.1004    1.4750    0.5329 H   0  0  0  0  0  0  0  0  0  0  0  0
    3.0283    0.2248    1.7765 H   0  0  0  0  0  0  0  0  0  0  0  0
    1.9377   -1.3364    0.1438 H   0  0  0  0  0  0  0  0  0  0  0  0
    2.0097   -0.0862   -1.0998 H   0  0  0  0  0  0  0  0  0  0  0  0
    0.5784    1.4062    0.3174 H   0  0  0  0  0  0  0  0  0  0  0  0
    0.5063    0.1558    1.5611 H   0  0  0  0  0  0  0  0  0  0  0  0
   -0.5784   -1.4062   -0.0720 H   0  0  0  0  0  0  0  0  0  0  0  0
   -0.5063   -0.1558   -1.3158 H   0  0  0  0  0  0  0  0  0  0  0  0
   -1.9377    1.3364    0.1016 H   0  0  0  0  0  0  0  0  0  0  0  0
   -2.0097    0.0862    1.3452 H   0  0  0  0  0  0  0  0  0  0  0  0
   -3.0283   -0.2248   -1.5311 H   0  0  0  0  0  0  0  0  0  0  0  0
   -3.1004   -1.4750   -0.2875 H   0  0  0  0  0  0  0  0  0  0  0  0
   -4.5578   -0.0020    1.1158 H   0  0  0  0  0  0  0  0  0  0  0  0
   -5.2664   -0.2972   -0.4813 H   0  0  0  0  0  0  0  0  0  0  0  0
   -4.4854    1.2551   -0.1347 H   0  0  0  0  0  0  0  0  0  0  0  0
  1  2  1  0
  2  3  1  0
  3  4  1  0
  4  5  1  0
  5  6  1  0
  6  7  1  0
  7  8  1  0
  1  9  1  0
  1 10  1  0
  1 11  1  0
  2 12  1  0
  2 13  1  0
  3 14  1  0
  3 15  1  0
  4 16  1  0
  4 17  1  0
  5 18  1  0
  5 19  1  0
  6 20  1  0
  6 21  1  0
  7 22  1  0
  7 23  1  0
  8 24  1  0
  8 25  1  0
  8 26  1  0
M  END
>  <Energy>  (1) 
-5.885856129958655

>  <Real charge>  (1) 
0

>  <Mult>  (1) 
1

$$$$
mol_768 300
     RDKit          3D

 26 25  0  0  0  0  0  0  0  0999 V2000
   -3.7876    0.5206    0.2771 C   0  0  0  0  0  0  0  0  0  0  0  0
   -3.2593   -0.6376   -0.5551 C   0  0  0  0  0  0  0  0  0  0  0  0
   -1.8573   -1.0944   -0.1461 C   0  0  0  0  0  0  0  0  0  0  0  0
   -0.7778   -0.0399   -0.4000 C   0  0  0  0  0  0  0  0  0  0  0  0
    0.6153   -0.5840   -0.0748 C   0  0  0  0  0  0  0  0  0  0  0  0
    1.6963    0.4691   -0.3244 C   0  0  0  0  0  0  0  0  0  0  0  0
    3.0875   -0.0746   -0.0001 C   0  0  0  0  0  0  0  0  0  0  0  0
    4.1650    0.9692   -0.2468 C   0  0  0  0  0  0  0  0  0  0  0  0
   -3.2064    1.4322    0.1111 H   0  0  0  0  0  0  0  0  0  0  0  0
   -4.8256    0.7361    0.0038 H   0  0  0  0  0  0  0  0  0  0  0  0
   -3.7613    0.2818    1.3449 H   0  0  0  0  0  0  0  0  0  0  0  0
   -3.2667   -0.3584   -1.6151 H   0  0  0  0  0  0  0  0  0  0  0  0
   -3.9459   -1.4857   -0.4462 H   0  0  0  0  0  0  0  0  0  0  0  0
   -1.6137   -2.0008   -0.7143 H   0  0  0  0  0  0  0  0  0  0  0  0
   -1.8572   -1.3767    0.9138 H   0  0  0  0  0  0  0  0  0  0  0  0
   -0.8122    0.2764   -1.4495 H   0  0  0  0  0  0  0  0  0  0  0  0
   -0.9680    0.8475    0.2140 H   0  0  0  0  0  0  0  0  0  0  0  0
    0.8169   -1.4695   -0.6897 H   0  0  0  0  0  0  0  0  0  0  0  0
    0.6488   -0.9037    0.9739 H   0  0  0  0  0  0  0  0  0  0  0  0
    1.4955    1.3549    0.2905 H   0  0  0  0  0  0  0  0  0  0  0  0
    1.6622    0.7893   -1.3729 H   0  0  0  0  0  0  0  0  0  0  0  0
    3.1281   -0.3924    1.0483 H   0  0  0  0  0  0  0  0  0  0  0  0
    3.2950   -0.9579   -0.6152 H   0  0  0  0  0  0  0  0  0  0  0  0
    5.1514    0.5593   -0.0085 H   0  0  0  0  0  0  0  0  0  0  0  0
    4.0047    1.8538    0.3779 H   0  0  0  0  0  0  0  0  0  0  0  0
    4.1725    1.2852   -1.2949 H   0  0  0  0  0  0  0  0  0  0  0  0
  1  2  1  0
  2  3  1  0
  3  4  1  0
  4  5  1  0
  5  6  1  0
  6  7  1  0
  7  8  1  0
  1  9  1  0
  1 10  1  0
  1 11  1  0
  2 12  1  0
  2 13  1  0
  3 14  1  0
  3 15  1  0
  4 16  1  0
  4 17  1  0
  5 18  1  0
  5 19  1  0
  6 20  1  0
  6 21  1  0
  7 22  1  0
  7 23  1  0
  8 24  1  0
  8 25  1  0
  8 26  1  0
M  END
>  <Energy>  (2) 
-5.061914389765586

>  <Real charge>  (2) 
0

>  <Mult>  (2) 
1

$$$$
mol_768 243
     RDKit          3D

 26 25  0  0  0  0  0  0  0  0999 V2000
   -3.8006    0.6980   -1.1165 C   0  0  0  0  0  0  0  0  0  0  0  0
   -2.9385   -0.4607   -0.6413 C   0  0  0  0  0  0  0  0  0  0  0  0
   -1.5728    0.0214   -0.1498 C   0  0  0  0  0  0  0  0  0  0  0  0
   -0.7096   -1.1502    0.3232 C   0  0  0  0  0  0  0  0  0  0  0  0
    0.6262   -0.7154    0.9331 C   0  0  0  0  0  0  0  0  0  0  0  0
    1.5712   -0.0592   -0.0760 C   0  0  0  0  0  0  0  0  0  0  0  0
    2.9290    0.2486    0.5569 C   0  0  0  0  0  0  0  0  0  0  0  0
    3.8722    0.9044   -0.4391 C   0  0  0  0  0  0  0  0  0  0  0  0
   -3.9766    1.4137   -0.3071 H   0  0  0  0  0  0  0  0  0  0  0  0
   -3.3225    1.2282   -1.9464 H   0  0  0  0  0  0  0  0  0  0  0  0
   -4.7718    0.3309   -1.4626 H   0  0  0  0  0  0  0  0  0  0  0  0
   -2.8077   -1.1730   -1.4642 H   0  0  0  0  0  0  0  0  0  0  0  0
   -3.4600   -0.9888    0.1655 H   0  0  0  0  0  0  0  0  0  0  0  0
   -1.0688    0.5559   -0.9627 H   0  0  0  0  0  0  0  0  0  0  0  0
   -1.7095    0.7336    0.6728 H   0  0  0  0  0  0  0  0  0  0  0  0
   -1.2621   -1.7179    1.0823 H   0  0  0  0  0  0  0  0  0  0  0  0
   -0.5263   -1.8367   -0.5124 H   0  0  0  0  0  0  0  0  0  0  0  0
    1.1137   -1.6035    1.3543 H   0  0  0  0  0  0  0  0  0  0  0  0
    0.4429   -0.0299    1.7694 H   0  0  0  0  0  0  0  0  0  0  0  0
    1.1326    0.8720   -0.4515 H   0  0  0  0  0  0  0  0  0  0  0  0
    1.7099   -0.7243   -0.9368 H   0  0  0  0  0  0  0  0  0  0  0  0
    3.3856   -0.6763    0.9282 H   0  0  0  0  0  0  0  0  0  0  0  0
    2.7961    0.9136    1.4181 H   0  0  0  0  0  0  0  0  0  0  0  0
    4.8364    1.1149    0.0340 H   0  0  0  0  0  0  0  0  0  0  0  0
    3.4600    1.8499   -0.8058 H   0  0  0  0  0  0  0  0  0  0  0  0
    4.0510    0.2508   -1.2989 H   0  0  0  0  0  0  0  0  0  0  0  0
  1  2  1  0
  2  3  1  0
  3  4  1  0
  4  5  1  0
  5  6  1  0
  6  7  1  0
  7  8  1  0
  1  9  1  0
  1 10  1  0
  1 11  1  0
  2 12  1  0
  2 13  1  0
  3 14  1  0
  3 15  1  0
  4 16  1  0
  4 17  1  0
  5 18  1  0
  5 19  1  0
  6 20  1  0
  6 21  1  0
  7 22  1  0
  7 23  1  0
  8 24  1  0
  8 25  1  0
  8 26  1  0
M  END
>  <Energy>  (3) 
-5.012973876495556

>  <Real charge>  (3) 
0

>  <Mult>  (3) 
1

$$$$
mol_768 261
     RDKit          3D

 26 25  0  0  0  0  0  0  0  0999 V2000
   -4.1000   -0.1922    0.6774 C   0  0  0  0  0  0  0  0  0  0  0  0
   -2.6597   -0.4719    0.2758 C   0  0  0  0  0  0  0  0  0  0  0  0
   -2.0159    0.7518   -0.3774 C   0  0  0  0  0  0  0  0  0  0  0  0
   -0.6022    0.4881   -0.9035 C   0  0  0  0  0  0  0  0  0  0  0  0
    0.4133    0.1924    0.2024 C   0  0  0  0  0  0  0  0  0  0  0  0
    1.8268    0.0506   -0.3672 C   0  0  0  0  0  0  0  0  0  0  0  0
    2.8429   -0.2486    0.7348 C   0  0  0  0  0  0  0  0  0  0  0  0
    4.2486   -0.3896    0.1730 C   0  0  0  0  0  0  0  0  0  0  0  0
   -4.1540    0.6339    1.3937 H   0  0  0  0  0  0  0  0  0  0  0  0
   -4.5415   -1.0775    1.1457 H   0  0  0  0  0  0  0  0  0  0  0  0
   -4.7075    0.0686   -0.1951 H   0  0  0  0  0  0  0  0  0  0  0  0
   -2.0989   -0.7666    1.1691 H   0  0  0  0  0  0  0  0  0  0  0  0
   -2.6386   -1.3198   -0.4184 H   0  0  0  0  0  0  0  0  0  0  0  0
   -1.9935    1.5844    0.3363 H   0  0  0  0  0  0  0  0  0  0  0  0
   -2.6387    1.0763   -1.2204 H   0  0  0  0  0  0  0  0  0  0  0  0
   -0.2753    1.3743   -1.4617 H   0  0  0  0  0  0  0  0  0  0  0  0
   -0.6249   -0.3438   -1.6180 H   0  0  0  0  0  0  0  0  0  0  0  0
    0.3959    1.0005    0.9435 H   0  0  0  0  0  0  0  0  0  0  0  0
    0.1433   -0.7331    0.7231 H   0  0  0  0  0  0  0  0  0  0  0  0
    2.1091    0.9752   -0.8853 H   0  0  0  0  0  0  0  0  0  0  0  0
    1.8436   -0.7550   -1.1114 H   0  0  0  0  0  0  0  0  0  0  0  0
    2.8324    0.5558    1.4795 H   0  0  0  0  0  0  0  0  0  0  0  0
    2.5685   -1.1746    1.2533 H   0  0  0  0  0  0  0  0  0  0  0  0
    4.5665    0.5321   -0.3248 H   0  0  0  0  0  0  0  0  0  0  0  0
    4.3009   -1.2078   -0.5524 H   0  0  0  0  0  0  0  0  0  0  0  0
    4.9588   -0.6033    0.9779 H   0  0  0  0  0  0  0  0  0  0  0  0
  1  2  1  0
  2  3  1  0
  3  4  1  0
  4  5  1  0
  5  6  1  0
  6  7  1  0
  7  8  1  0
  1  9  1  0
  1 10  1  0
  1 11  1  0
  2 12  1  0
  2 13  1  0
  3 14  1  0
  3 15  1  0
  4 16  1  0
  4 17  1  0
  5 18  1  0
  5 19  1  0
  6 20  1  0
  6 21  1  0
  7 22  1  0
  7 23  1  0
  8 24  1  0
  8 25  1  0
  8 26  1  0
M  END
>  <Energy>  (4) 
-5.010414642292846

>  <Real charge>  (4) 
0

>  <Mult>  (4) 
1

$$$$
