mol_592 394
     RDKit          3D

 46 48  0  0  0  0  0  0  0  0999 V2000
   -3.5049    0.2916   -1.1265 C   0  0  0  0  0  0  0  0  0  0  0  0
   -2.5558   -0.4749   -2.0178 C   0  0  0  0  0  0  0  0  0  0  0  0
   -3.2626   -1.3006   -3.0662 C   0  0  0  0  0  0  0  0  0  0  0  0
   -1.2560   -0.9517   -1.3886 C   0  0  0  0  0  0  0  0  0  0  0  0
   -0.6918   -2.2687   -1.7210 C   0  0  0  0  0  0  0  0  0  0  0  0
    0.5984   -2.5836   -1.9133 C   0  0  0  0  0  0  0  0  0  0  0  0
    1.0529   -4.2157   -2.2547 Cl  0  0  0  0  0  0  0  0  0  0  0  0
    1.8601   -1.4101   -1.8248 Cl  0  0  0  0  0  0  0  0  0  0  0  0
   -1.2327    0.1596   -2.4227 C   0  0  0  0  0  0  0  0  0  0  0  0
   -0.8929    1.5487   -2.0310 C   0  0  0  0  0  0  0  0  0  0  0  0
   -1.4430    2.5177   -2.5306 O   0  0  0  0  0  0  0  0  0  0  0  0
    0.0787    1.5734   -1.0910 O   0  0  0  0  0  0  0  0  0  0  0  0
    0.4076    2.8771   -0.6049 C   0  0  0  0  0  0  0  0  0  0  0  0
    1.3164    2.7200    0.5904 C   0  0  0  0  0  0  0  0  0  0  0  0
    2.3946    3.5931    0.7894 C   0  0  0  0  0  0  0  0  0  0  0  0
    3.2210    3.4565    1.9080 C   0  0  0  0  0  0  0  0  0  0  0  0
    2.9813    2.4439    2.8371 C   0  0  0  0  0  0  0  0  0  0  0  0
    1.9180    1.5642    2.6457 C   0  0  0  0  0  0  0  0  0  0  0  0
    1.7209    0.5990    3.6088 O   0  0  0  0  0  0  0  0  0  0  0  0
    1.3706   -0.6588    3.1717 C   0  0  0  0  0  0  0  0  0  0  0  0
    2.1229   -1.3535    2.2211 C   0  0  0  0  0  0  0  0  0  0  0  0
    1.7363   -2.6379    1.8364 C   0  0  0  0  0  0  0  0  0  0  0  0
    0.6083   -3.2283    2.4074 C   0  0  0  0  0  0  0  0  0  0  0  0
   -0.1283   -2.5405    3.3730 C   0  0  0  0  0  0  0  0  0  0  0  0
    0.2581   -1.2576    3.7628 C   0  0  0  0  0  0  0  0  0  0  0  0
    1.0701    1.7215    1.5465 C   0  0  0  0  0  0  0  0  0  0  0  0
   -4.2110   -0.3952   -0.6481 H   0  0  0  0  0  0  0  0  0  0  0  0
   -2.9840    0.8350   -0.3309 H   0  0  0  0  0  0  0  0  0  0  0  0
   -4.0762    1.0177   -1.7142 H   0  0  0  0  0  0  0  0  0  0  0  0
   -2.5673   -1.7745   -3.7670 H   0  0  0  0  0  0  0  0  0  0  0  0
   -3.9384   -0.6690   -3.6526 H   0  0  0  0  0  0  0  0  0  0  0  0
   -3.8562   -2.0889   -2.5916 H   0  0  0  0  0  0  0  0  0  0  0  0
   -1.0838   -0.6751   -0.3500 H   0  0  0  0  0  0  0  0  0  0  0  0
   -1.4159   -3.0799   -1.7750 H   0  0  0  0  0  0  0  0  0  0  0  0
   -0.8622   -0.0819   -3.4143 H   0  0  0  0  0  0  0  0  0  0  0  0
    0.9163    3.4303   -1.4026 H   0  0  0  0  0  0  0  0  0  0  0  0
   -0.4955    3.4161   -0.2943 H   0  0  0  0  0  0  0  0  0  0  0  0
    2.5997    4.3873    0.0744 H   0  0  0  0  0  0  0  0  0  0  0  0
    4.0536    4.1397    2.0547 H   0  0  0  0  0  0  0  0  0  0  0  0
    3.6253    2.3375    3.7055 H   0  0  0  0  0  0  0  0  0  0  0  0
    3.0077   -0.9026    1.7803 H   0  0  0  0  0  0  0  0  0  0  0  0
    2.3188   -3.1795    1.0955 H   0  0  0  0  0  0  0  0  0  0  0  0
    0.3107   -4.2301    2.1080 H   0  0  0  0  0  0  0  0  0  0  0  0
   -0.9988   -3.0065    3.8272 H   0  0  0  0  0  0  0  0  0  0  0  0
   -0.3082   -0.7232    4.5203 H   0  0  0  0  0  0  0  0  0  0  0  0
    0.2171    1.0586    1.4241 H   0  0  0  0  0  0  0  0  0  0  0  0
  1  2  1  0
  2  3  1  0
  2  4  1  0
  4  5  1  0
  5  6  2  3
  6  7  1  0
  6  8  1  0
  4  9  1  0
  9 10  1  0
 10 11  2  0
 10 12  1  0
 12 13  1  0
 13 14  1  0
 14 15  2  0
 15 16  1  0
 16 17  2  0
 17 18  1  0
 18 19  1  0
 19 20  1  0
 20 21  2  0
 21 22  1  0
 22 23  2  0
 23 24  1  0
 24 25  2  0
 18 26  2  0
  9  2  1  0
 26 14  1  0
 25 20  1  0
  1 27  1  0
  1 28  1  0
  1 29  1  0
  3 30  1  0
  3 31  1  0
  3 32  1  0
  4 33  1  0
  5 34  1  0
  9 35  1  0
 13 36  1  0
 13 37  1  0
 15 38  1  0
 16 39  1  0
 17 40  1  0
 21 41  1  0
 22 42  1  0
 23 43  1  0
 24 44  1  0
 25 45  1  0
 26 46  1  0
M  END
>  <Energy>  (1) 
53.136400096700406

>  <Real charge>  (1) 
0

>  <Mult>  (1) 
1

$$$$
mol_592 89
     RDKit          3D

 46 48  0  0  0  0  0  0  0  0999 V2000
   -3.2604   -1.9527    0.6060 C   0  0  0  0  0  0  0  0  0  0  0  0
   -1.9991   -2.4927    1.2376 C   0  0  0  0  0  0  0  0  0  0  0  0
   -2.2660   -3.5032    2.3276 C   0  0  0  0  0  0  0  0  0  0  0  0
   -0.8183   -1.5417    1.3342 C   0  0  0  0  0  0  0  0  0  0  0  0
    0.0667   -1.5402    2.5094 C   0  0  0  0  0  0  0  0  0  0  0  0
   -0.1168   -0.8771    3.6613 C   0  0  0  0  0  0  0  0  0  0  0  0
    1.0576   -0.9811    4.9241 Cl  0  0  0  0  0  0  0  0  0  0  0  0
   -1.5074    0.1053    3.9442 Cl  0  0  0  0  0  0  0  0  0  0  0  0
   -0.7663   -2.7169    0.3736 C   0  0  0  0  0  0  0  0  0  0  0  0
   -0.7965   -2.4989   -1.0931 C   0  0  0  0  0  0  0  0  0  0  0  0
   -1.3000   -3.3044   -1.8599 O   0  0  0  0  0  0  0  0  0  0  0  0
   -0.1788   -1.3452   -1.4320 O   0  0  0  0  0  0  0  0  0  0  0  0
   -0.1598   -1.0524   -2.8322 C   0  0  0  0  0  0  0  0  0  0  0  0
    0.3129    0.3701   -3.0283 C   0  0  0  0  0  0  0  0  0  0  0  0
   -0.0728    1.0888   -4.1691 C   0  0  0  0  0  0  0  0  0  0  0  0
    0.3660    2.4011   -4.3653 C   0  0  0  0  0  0  0  0  0  0  0  0
    1.1904    3.0129   -3.4210 C   0  0  0  0  0  0  0  0  0  0  0  0
    1.5751    2.3130   -2.2797 C   0  0  0  0  0  0  0  0  0  0  0  0
    2.4006    2.9660   -1.3906 O   0  0  0  0  0  0  0  0  0  0  0  0
    2.1511    2.7769   -0.0492 C   0  0  0  0  0  0  0  0  0  0  0  0
    0.8866    2.9797    0.5108 C   0  0  0  0  0  0  0  0  0  0  0  0
    0.6977    2.7918    1.8805 C   0  0  0  0  0  0  0  0  0  0  0  0
    1.7725    2.4194    2.6887 C   0  0  0  0  0  0  0  0  0  0  0  0
    3.0391    2.2403    2.1307 C   0  0  0  0  0  0  0  0  0  0  0  0
    3.2312    2.4275    0.7612 C   0  0  0  0  0  0  0  0  0  0  0  0
    1.1697    0.9872   -2.1027 C   0  0  0  0  0  0  0  0  0  0  0  0
   -3.0559   -1.1718   -0.1341 H   0  0  0  0  0  0  0  0  0  0  0  0
   -3.8095   -2.7572    0.1059 H   0  0  0  0  0  0  0  0  0  0  0  0
   -3.9101   -1.5175    1.3726 H   0  0  0  0  0  0  0  0  0  0  0  0
   -2.8875   -4.3185    1.9420 H   0  0  0  0  0  0  0  0  0  0  0  0
   -2.7980   -3.0328    3.1609 H   0  0  0  0  0  0  0  0  0  0  0  0
   -1.3470   -3.9505    2.7206 H   0  0  0  0  0  0  0  0  0  0  0  0
   -0.9393   -0.5521    0.8963 H   0  0  0  0  0  0  0  0  0  0  0  0
    0.9801   -2.1241    2.4095 H   0  0  0  0  0  0  0  0  0  0  0  0
   -0.1379   -3.5612    0.6406 H   0  0  0  0  0  0  0  0  0  0  0  0
   -1.1696   -1.1626   -3.2455 H   0  0  0  0  0  0  0  0  0  0  0  0
    0.5318   -1.7352   -3.3381 H   0  0  0  0  0  0  0  0  0  0  0  0
   -0.7199    0.6310   -4.9148 H   0  0  0  0  0  0  0  0  0  0  0  0
    0.0626    2.9482   -5.2544 H   0  0  0  0  0  0  0  0  0  0  0  0
    1.5276    4.0346   -3.5718 H   0  0  0  0  0  0  0  0  0  0  0  0
    0.0501    3.2844   -0.1116 H   0  0  0  0  0  0  0  0  0  0  0  0
   -0.2855    2.9430    2.3188 H   0  0  0  0  0  0  0  0  0  0  0  0
    1.6247    2.2785    3.7567 H   0  0  0  0  0  0  0  0  0  0  0  0
    3.8772    1.9610    2.7638 H   0  0  0  0  0  0  0  0  0  0  0  0
    4.2174    2.2951    0.3255 H   0  0  0  0  0  0  0  0  0  0  0  0
    1.5139    0.4344   -1.2317 H   0  0  0  0  0  0  0  0  0  0  0  0
  1  2  1  0
  2  3  1  0
  2  4  1  0
  4  5  1  0
  5  6  2  3
  6  7  1  0
  6  8  1  0
  4  9  1  0
  9 10  1  0
 10 11  2  0
 10 12  1  0
 12 13  1  0
 13 14  1  0
 14 15  2  0
 15 16  1  0
 16 17  2  0
 17 18  1  0
 18 19  1  0
 19 20  1  0
 20 21  2  0
 21 22  1  0
 22 23  2  0
 23 24  1  0
 24 25  2  0
 18 26  2  0
  9  2  1  0
 26 14  1  0
 25 20  1  0
  1 27  1  0
  1 28  1  0
  1 29  1  0
  3 30  1  0
  3 31  1  0
  3 32  1  0
  4 33  1  0
  5 34  1  0
  9 35  1  0
 13 36  1  0
 13 37  1  0
 15 38  1  0
 16 39  1  0
 17 40  1  0
 21 41  1  0
 22 42  1  0
 23 43  1  0
 24 44  1  0
 25 45  1  0
 26 46  1  0
M  END
>  <Energy>  (2) 
53.37402668713865

>  <Real charge>  (2) 
0

>  <Mult>  (2) 
1

$$$$
mol_592 96
     RDKit          3D

 46 48  0  0  0  0  0  0  0  0999 V2000
   -1.7242   -0.6999   -0.5012 C   0  0  0  0  0  0  0  0  0  0  0  0
   -2.4628    0.2596    0.4004 C   0  0  0  0  0  0  0  0  0  0  0  0
   -3.9490   -0.0058    0.4525 C   0  0  0  0  0  0  0  0  0  0  0  0
   -1.7157    0.7415    1.6319 C   0  0  0  0  0  0  0  0  0  0  0  0
   -2.4049    0.8887    2.9230 C   0  0  0  0  0  0  0  0  0  0  0  0
   -2.6424   -0.0724    3.8288 C   0  0  0  0  0  0  0  0  0  0  0  0
   -3.4623    0.3019    5.3027 Cl  0  0  0  0  0  0  0  0  0  0  0  0
   -2.1546   -1.7095    3.5807 Cl  0  0  0  0  0  0  0  0  0  0  0  0
   -2.0229    1.7141    0.5072 C   0  0  0  0  0  0  0  0  0  0  0  0
   -0.8891    2.2838   -0.2580 C   0  0  0  0  0  0  0  0  0  0  0  0
    0.0122    2.8910    0.2996 O   0  0  0  0  0  0  0  0  0  0  0  0
   -1.0150    2.0639   -1.5900 O   0  0  0  0  0  0  0  0  0  0  0  0
    0.0976    2.4800   -2.3908 C   0  0  0  0  0  0  0  0  0  0  0  0
    0.9665    1.2837   -2.6856 C   0  0  0  0  0  0  0  0  0  0  0  0
    0.8666    0.6023   -3.9068 C   0  0  0  0  0  0  0  0  0  0  0  0
    1.6620   -0.5181   -4.1618 C   0  0  0  0  0  0  0  0  0  0  0  0
    2.5483   -0.9830   -3.1908 C   0  0  0  0  0  0  0  0  0  0  0  0
    2.6267   -0.3342   -1.9607 C   0  0  0  0  0  0  0  0  0  0  0  0
    3.5116   -0.8315   -1.0299 O   0  0  0  0  0  0  0  0  0  0  0  0
    2.9907   -1.0751    0.2219 C   0  0  0  0  0  0  0  0  0  0  0  0
    3.6265   -0.4881    1.3152 C   0  0  0  0  0  0  0  0  0  0  0  0
    3.1405   -0.7168    2.6030 C   0  0  0  0  0  0  0  0  0  0  0  0
    2.0334   -1.5450    2.7953 C   0  0  0  0  0  0  0  0  0  0  0  0
    1.4160   -2.1534    1.7019 C   0  0  0  0  0  0  0  0  0  0  0  0
    1.8984   -1.9251    0.4130 C   0  0  0  0  0  0  0  0  0  0  0  0
    1.8626    0.8097   -1.7160 C   0  0  0  0  0  0  0  0  0  0  0  0
   -1.8940   -1.7314   -0.1748 H   0  0  0  0  0  0  0  0  0  0  0  0
   -0.6448   -0.5276   -0.4943 H   0  0  0  0  0  0  0  0  0  0  0  0
   -2.0769   -0.6047   -1.5333 H   0  0  0  0  0  0  0  0  0  0  0  0
   -4.1454   -0.9955    0.8777 H   0  0  0  0  0  0  0  0  0  0  0  0
   -4.3719    0.0220   -0.5574 H   0  0  0  0  0  0  0  0  0  0  0  0
   -4.4878    0.7349    1.0528 H   0  0  0  0  0  0  0  0  0  0  0  0
   -0.6721    0.4466    1.7372 H   0  0  0  0  0  0  0  0  0  0  0  0
   -2.7327    1.8981    3.1659 H   0  0  0  0  0  0  0  0  0  0  0  0
   -2.7970    2.4527    0.6905 H   0  0  0  0  0  0  0  0  0  0  0  0
    0.6831    3.2855   -1.9309 H   0  0  0  0  0  0  0  0  0  0  0  0
   -0.3083    2.8930   -3.3213 H   0  0  0  0  0  0  0  0  0  0  0  0
    0.1692    0.9411   -4.6702 H   0  0  0  0  0  0  0  0  0  0  0  0
    1.5864   -1.0320   -5.1167 H   0  0  0  0  0  0  0  0  0  0  0  0
    3.1647   -1.8558   -3.3858 H   0  0  0  0  0  0  0  0  0  0  0  0
    4.4890    0.1543    1.1630 H   0  0  0  0  0  0  0  0  0  0  0  0
    3.6256   -0.2506    3.4566 H   0  0  0  0  0  0  0  0  0  0  0  0
    1.6556   -1.7227    3.7993 H   0  0  0  0  0  0  0  0  0  0  0  0
    0.5612   -2.8072    1.8544 H   0  0  0  0  0  0  0  0  0  0  0  0
    1.4219   -2.4089   -0.4346 H   0  0  0  0  0  0  0  0  0  0  0  0
    1.9577    1.3277   -0.7638 H   0  0  0  0  0  0  0  0  0  0  0  0
  1  2  1  0
  2  3  1  0
  2  4  1  0
  4  5  1  0
  5  6  2  3
  6  7  1  0
  6  8  1  0
  4  9  1  0
  9 10  1  0
 10 11  2  0
 10 12  1  0
 12 13  1  0
 13 14  1  0
 14 15  2  0
 15 16  1  0
 16 17  2  0
 17 18  1  0
 18 19  1  0
 19 20  1  0
 20 21  2  0
 21 22  1  0
 22 23  2  0
 23 24  1  0
 24 25  2  0
 18 26  2  0
  9  2  1  0
 26 14  1  0
 25 20  1  0
  1 27  1  0
  1 28  1  0
  1 29  1  0
  3 30  1  0
  3 31  1  0
  3 32  1  0
  4 33  1  0
  5 34  1  0
  9 35  1  0
 13 36  1  0
 13 37  1  0
 15 38  1  0
 16 39  1  0
 17 40  1  0
 21 41  1  0
 22 42  1  0
 23 43  1  0
 24 44  1  0
 25 45  1  0
 26 46  1  0
M  END
>  <Energy>  (3) 
53.82541650458953

>  <Real charge>  (3) 
0

>  <Mult>  (3) 
1

$$$$
mol_592 285
     RDKit          3D

 46 48  0  0  0  0  0  0  0  0999 V2000
   -2.3141   -1.4231   -1.5785 C   0  0  0  0  0  0  0  0  0  0  0  0
   -1.7498   -0.0279   -1.7058 C   0  0  0  0  0  0  0  0  0  0  0  0
   -0.2422   -0.0075   -1.8010 C   0  0  0  0  0  0  0  0  0  0  0  0
   -2.4930    1.0521   -2.4740 C   0  0  0  0  0  0  0  0  0  0  0  0
   -3.7467    0.7448   -3.1806 C   0  0  0  0  0  0  0  0  0  0  0  0
   -3.8797    0.1872   -4.3940 C   0  0  0  0  0  0  0  0  0  0  0  0
   -2.5171   -0.2846   -5.3424 Cl  0  0  0  0  0  0  0  0  0  0  0  0
   -5.4501   -0.0866   -5.0600 Cl  0  0  0  0  0  0  0  0  0  0  0  0
   -2.4844    1.0782   -0.9579 C   0  0  0  0  0  0  0  0  0  0  0  0
   -1.7577    2.1534   -0.2447 C   0  0  0  0  0  0  0  0  0  0  0  0
   -1.8458    3.3273   -0.5699 O   0  0  0  0  0  0  0  0  0  0  0  0
   -1.0375    1.6560    0.7880 O   0  0  0  0  0  0  0  0  0  0  0  0
   -0.2711    2.6385    1.4898 C   0  0  0  0  0  0  0  0  0  0  0  0
    0.6813    1.9125    2.4054 C   0  0  0  0  0  0  0  0  0  0  0  0
    0.6739    2.1395    3.7881 C   0  0  0  0  0  0  0  0  0  0  0  0
    1.5676    1.4620    4.6216 C   0  0  0  0  0  0  0  0  0  0  0  0
    2.4694    0.5440    4.0832 C   0  0  0  0  0  0  0  0  0  0  0  0
    2.4724    0.2965    2.7119 C   0  0  0  0  0  0  0  0  0  0  0  0
    3.3975   -0.6086    2.2404 O   0  0  0  0  0  0  0  0  0  0  0  0
    2.9741   -1.4868    1.2682 C   0  0  0  0  0  0  0  0  0  0  0  0
    1.8354   -2.2815    1.4257 C   0  0  0  0  0  0  0  0  0  0  0  0
    1.4670   -3.1709    0.4156 C   0  0  0  0  0  0  0  0  0  0  0  0
    2.2431   -3.2753   -0.7396 C   0  0  0  0  0  0  0  0  0  0  0  0
    3.3932   -2.4978   -0.8831 C   0  0  0  0  0  0  0  0  0  0  0  0
    3.7645   -1.6082    0.1256 C   0  0  0  0  0  0  0  0  0  0  0  0
    1.6032    0.9981    1.8725 C   0  0  0  0  0  0  0  0  0  0  0  0
   -3.4006   -1.4268   -1.4427 H   0  0  0  0  0  0  0  0  0  0  0  0
   -1.8746   -1.9289   -0.7120 H   0  0  0  0  0  0  0  0  0  0  0  0
   -2.0809   -2.0124   -2.4713 H   0  0  0  0  0  0  0  0  0  0  0  0
    0.2005   -0.4344   -0.8963 H   0  0  0  0  0  0  0  0  0  0  0  0
    0.0900   -0.6028   -2.6582 H   0  0  0  0  0  0  0  0  0  0  0  0
    0.1557    1.0047   -1.9277 H   0  0  0  0  0  0  0  0  0  0  0  0
   -1.9001    1.8182   -2.9712 H   0  0  0  0  0  0  0  0  0  0  0  0
   -4.6589    1.0254   -2.6565 H   0  0  0  0  0  0  0  0  0  0  0  0
   -3.4067    0.8075   -0.4533 H   0  0  0  0  0  0  0  0  0  0  0  0
   -0.9522    3.2776    2.0632 H   0  0  0  0  0  0  0  0  0  0  0  0
    0.3082    3.2588    0.7946 H   0  0  0  0  0  0  0  0  0  0  0  0
   -0.0261    2.8469    4.2276 H   0  0  0  0  0  0  0  0  0  0  0  0
    1.5598    1.6488    5.6925 H   0  0  0  0  0  0  0  0  0  0  0  0
    3.1635    0.0171    4.7321 H   0  0  0  0  0  0  0  0  0  0  0  0
    1.2355   -2.2126    2.3288 H   0  0  0  0  0  0  0  0  0  0  0  0
    0.5782   -3.7854    0.5317 H   0  0  0  0  0  0  0  0  0  0  0  0
    1.9564   -3.9700   -1.5251 H   0  0  0  0  0  0  0  0  0  0  0  0
    4.0028   -2.5883   -1.7785 H   0  0  0  0  0  0  0  0  0  0  0  0
    4.6626   -1.0064    0.0191 H   0  0  0  0  0  0  0  0  0  0  0  0
    1.6333    0.8319    0.7986 H   0  0  0  0  0  0  0  0  0  0  0  0
  1  2  1  0
  2  3  1  0
  2  4  1  0
  4  5  1  0
  5  6  2  3
  6  7  1  0
  6  8  1  0
  4  9  1  0
  9 10  1  0
 10 11  2  0
 10 12  1  0
 12 13  1  0
 13 14  1  0
 14 15  2  0
 15 16  1  0
 16 17  2  0
 17 18  1  0
 18 19  1  0
 19 20  1  0
 20 21  2  0
 21 22  1  0
 22 23  2  0
 23 24  1  0
 24 25  2  0
 18 26  2  0
  9  2  1  0
 26 14  1  0
 25 20  1  0
  1 27  1  0
  1 28  1  0
  1 29  1  0
  3 30  1  0
  3 31  1  0
  3 32  1  0
  4 33  1  0
  5 34  1  0
  9 35  1  0
 13 36  1  0
 13 37  1  0
 15 38  1  0
 16 39  1  0
 17 40  1  0
 21 41  1  0
 22 42  1  0
 23 43  1  0
 24 44  1  0
 25 45  1  0
 26 46  1  0
M  END
>  <Energy>  (4) 
53.915308129022854

>  <Real charge>  (4) 
0

>  <Mult>  (4) 
1

$$$$
