mol_594 171
     RDKit          3D

 43 45  0  0  0  0  0  0  0  0999 V2000
    0.9118   -0.2320    3.1367 O   0  0  0  0  0  0  0  0  0  0  0  0
    0.3807    0.0682    2.0808 C   0  0  0  0  0  0  0  0  0  0  0  0
    0.9273    0.7484    1.0470 N   0  0  0  0  0  0  0  0  0  0  0  0
    2.2825    1.2203    1.0109 C   0  0  0  0  0  0  0  0  0  0  0  0
    3.0924    0.1783    0.4668 O   0  0  0  0  0  0  0  0  0  0  0  0
    4.4073    0.5185    0.3872 C   0  0  0  0  0  0  0  0  0  0  0  0
    4.8723    1.5948    0.7325 O   0  0  0  0  0  0  0  0  0  0  0  0
    5.1912   -0.6346   -0.1911 C   0  0  0  0  0  0  0  0  0  0  0  0
    6.6714   -0.3160   -0.3077 C   0  0  0  0  0  0  0  0  0  0  0  0
    0.0618    0.7937   -0.0091 C   0  0  0  0  0  0  0  0  0  0  0  0
    0.3135    1.2917   -1.1021 O   0  0  0  0  0  0  0  0  0  0  0  0
   -1.2710    0.0905    0.4010 C   0  0  0  0  0  0  0  0  0  0  0  0
   -0.9084   -0.2669    1.7611 N   0  0  0  0  0  0  0  0  0  0  0  0
   -2.4227    1.1057    0.3467 C   0  0  0  0  0  0  0  0  0  0  0  0
   -3.0355    1.6185    1.5050 C   0  0  0  0  0  0  0  0  0  0  0  0
   -4.0802    2.5425    1.4158 C   0  0  0  0  0  0  0  0  0  0  0  0
   -4.5299    2.9735    0.1708 C   0  0  0  0  0  0  0  0  0  0  0  0
   -3.9348    2.4844   -0.9880 C   0  0  0  0  0  0  0  0  0  0  0  0
   -2.8909    1.5612   -0.9017 C   0  0  0  0  0  0  0  0  0  0  0  0
   -1.5725   -1.2081   -0.3632 C   0  0  0  0  0  0  0  0  0  0  0  0
   -0.7118   -1.7358   -1.3414 C   0  0  0  0  0  0  0  0  0  0  0  0
   -1.0173   -2.9320   -1.9978 C   0  0  0  0  0  0  0  0  0  0  0  0
   -2.1837   -3.6256   -1.6881 C   0  0  0  0  0  0  0  0  0  0  0  0
   -3.0491   -3.1259   -0.7207 C   0  0  0  0  0  0  0  0  0  0  0  0
   -2.7465   -1.9318   -0.0633 C   0  0  0  0  0  0  0  0  0  0  0  0
    2.3343    2.1075    0.3696 H   0  0  0  0  0  0  0  0  0  0  0  0
    2.6091    1.4566    2.0299 H   0  0  0  0  0  0  0  0  0  0  0  0
    4.7899   -0.8633   -1.1840 H   0  0  0  0  0  0  0  0  0  0  0  0
    5.0576   -1.5054    0.4594 H   0  0  0  0  0  0  0  0  0  0  0  0
    6.8372    0.5501   -0.9571 H   0  0  0  0  0  0  0  0  0  0  0  0
    7.1027   -0.0867    0.6724 H   0  0  0  0  0  0  0  0  0  0  0  0
    7.2129   -1.1685   -0.7291 H   0  0  0  0  0  0  0  0  0  0  0  0
   -1.4367   -0.8979    2.3457 H   0  0  0  0  0  0  0  0  0  0  0  0
   -2.7094    1.3134    2.4969 H   0  0  0  0  0  0  0  0  0  0  0  0
   -4.5414    2.9291    2.3214 H   0  0  0  0  0  0  0  0  0  0  0  0
   -5.3410    3.6938    0.1036 H   0  0  0  0  0  0  0  0  0  0  0  0
   -4.2795    2.8229   -1.9619 H   0  0  0  0  0  0  0  0  0  0  0  0
   -2.4383    1.1997   -1.8251 H   0  0  0  0  0  0  0  0  0  0  0  0
    0.2110   -1.2318   -1.6212 H   0  0  0  0  0  0  0  0  0  0  0  0
   -0.3407   -3.3213   -2.7550 H   0  0  0  0  0  0  0  0  0  0  0  0
   -2.4180   -4.5541   -2.2021 H   0  0  0  0  0  0  0  0  0  0  0  0
   -3.9623   -3.6636   -0.4784 H   0  0  0  0  0  0  0  0  0  0  0  0
   -3.4453   -1.5619    0.6856 H   0  0  0  0  0  0  0  0  0  0  0  0
  1  2  2  0
  2  3  1  0
  3  4  1  0
  4  5  1  0
  5  6  1  0
  6  7  2  0
  6  8  1  0
  8  9  1  0
  3 10  1  0
 10 11  2  0
 10 12  1  0
 12 13  1  0
 12 14  1  0
 14 15  2  0
 15 16  1  0
 16 17  2  0
 17 18  1  0
 18 19  2  0
 12 20  1  0
 20 21  2  0
 21 22  1  0
 22 23  2  0
 23 24  1  0
 24 25  2  0
 13  2  1  0
 19 14  1  0
 25 20  1  0
  4 26  1  0
  4 27  1  0
  8 28  1  0
  8 29  1  0
  9 30  1  0
  9 31  1  0
  9 32  1  0
 13 33  1  0
 15 34  1  0
 16 35  1  0
 17 36  1  0
 18 37  1  0
 19 38  1  0
 21 39  1  0
 22 40  1  0
 23 41  1  0
 24 42  1  0
 25 43  1  0
M  END
>  <Energy>  (1) 
-37.875095695213304

>  <Real charge>  (1) 
0

>  <Mult>  (1) 
1

$$$$
mol_594 60
     RDKit          3D

 43 45  0  0  0  0  0  0  0  0999 V2000
    0.9054   -0.8543   -2.9936 O   0  0  0  0  0  0  0  0  0  0  0  0
    0.4002   -0.6982   -1.8948 C   0  0  0  0  0  0  0  0  0  0  0  0
    0.9600   -0.9407   -0.6875 N   0  0  0  0  0  0  0  0  0  0  0  0
    2.3075   -1.3956   -0.4908 C   0  0  0  0  0  0  0  0  0  0  0  0
    3.1344   -0.2443   -0.3256 O   0  0  0  0  0  0  0  0  0  0  0  0
    4.4391   -0.5579   -0.1023 C   0  0  0  0  0  0  0  0  0  0  0  0
    4.8843   -1.6950   -0.0478 O   0  0  0  0  0  0  0  0  0  0  0  0
    5.2403    0.7104    0.0653 C   0  0  0  0  0  0  0  0  0  0  0  0
    6.7100    0.4265    0.3209 C   0  0  0  0  0  0  0  0  0  0  0  0
    0.0703   -0.6820    0.3167 C   0  0  0  0  0  0  0  0  0  0  0  0
    0.2973   -0.8380    1.5126 O   0  0  0  0  0  0  0  0  0  0  0  0
   -1.2683   -0.1782   -0.3114 C   0  0  0  0  0  0  0  0  0  0  0  0
   -0.8779   -0.2441   -1.7085 N   0  0  0  0  0  0  0  0  0  0  0  0
   -2.4686   -1.1160   -0.1122 C   0  0  0  0  0  0  0  0  0  0  0  0
   -2.3928   -2.3107    0.6243 C   0  0  0  0  0  0  0  0  0  0  0  0
   -3.5099   -3.1397    0.7663 C   0  0  0  0  0  0  0  0  0  0  0  0
   -4.7218   -2.7935    0.1757 C   0  0  0  0  0  0  0  0  0  0  0  0
   -4.8221   -1.6162   -0.5579 C   0  0  0  0  0  0  0  0  0  0  0  0
   -3.7082   -0.7866   -0.7017 C   0  0  0  0  0  0  0  0  0  0  0  0
   -1.5427    1.2593    0.1568 C   0  0  0  0  0  0  0  0  0  0  0  0
   -1.9535    1.4926    1.4843 C   0  0  0  0  0  0  0  0  0  0  0  0
   -2.2089    2.7859    1.9443 C   0  0  0  0  0  0  0  0  0  0  0  0
   -2.0549    3.8727    1.0892 C   0  0  0  0  0  0  0  0  0  0  0  0
   -1.6420    3.6677   -0.2242 C   0  0  0  0  0  0  0  0  0  0  0  0
   -1.3857    2.3742   -0.6874 C   0  0  0  0  0  0  0  0  0  0  0  0
    2.3469   -2.0184    0.4101 H   0  0  0  0  0  0  0  0  0  0  0  0
    2.6305   -1.9645   -1.3698 H   0  0  0  0  0  0  0  0  0  0  0  0
    5.1393    1.3073   -0.8473 H   0  0  0  0  0  0  0  0  0  0  0  0
    4.8272    1.2724    0.9095 H   0  0  0  0  0  0  0  0  0  0  0  0
    7.2645    1.3627    0.4382 H   0  0  0  0  0  0  0  0  0  0  0  0
    6.8433   -0.1670    1.2315 H   0  0  0  0  0  0  0  0  0  0  0  0
    7.1530   -0.1321   -0.5104 H   0  0  0  0  0  0  0  0  0  0  0  0
   -1.4981   -0.0881   -2.4891 H   0  0  0  0  0  0  0  0  0  0  0  0
   -1.4717   -2.6242    1.1109 H   0  0  0  0  0  0  0  0  0  0  0  0
   -3.4318   -4.0583    1.3432 H   0  0  0  0  0  0  0  0  0  0  0  0
   -5.5879   -3.4401    0.2903 H   0  0  0  0  0  0  0  0  0  0  0  0
   -5.7684   -1.3404   -1.0165 H   0  0  0  0  0  0  0  0  0  0  0  0
   -3.8180    0.1330   -1.2745 H   0  0  0  0  0  0  0  0  0  0  0  0
   -2.0741    0.6606    2.1780 H   0  0  0  0  0  0  0  0  0  0  0  0
   -2.5247    2.9424    2.9727 H   0  0  0  0  0  0  0  0  0  0  0  0
   -2.2516    4.8796    1.4481 H   0  0  0  0  0  0  0  0  0  0  0  0
   -1.5146    4.5175   -0.8905 H   0  0  0  0  0  0  0  0  0  0  0  0
   -1.0555    2.2594   -1.7174 H   0  0  0  0  0  0  0  0  0  0  0  0
  1  2  2  0
  2  3  1  0
  3  4  1  0
  4  5  1  0
  5  6  1  0
  6  7  2  0
  6  8  1  0
  8  9  1  0
  3 10  1  0
 10 11  2  0
 10 12  1  0
 12 13  1  0
 12 14  1  0
 14 15  2  0
 15 16  1  0
 16 17  2  0
 17 18  1  0
 18 19  2  0
 12 20  1  0
 20 21  2  0
 21 22  1  0
 22 23  2  0
 23 24  1  0
 24 25  2  0
 13  2  1  0
 19 14  1  0
 25 20  1  0
  4 26  1  0
  4 27  1  0
  8 28  1  0
  8 29  1  0
  9 30  1  0
  9 31  1  0
  9 32  1  0
 13 33  1  0
 15 34  1  0
 16 35  1  0
 17 36  1  0
 18 37  1  0
 19 38  1  0
 21 39  1  0
 22 40  1  0
 23 41  1  0
 24 42  1  0
 25 43  1  0
M  END
>  <Energy>  (2) 
-37.64972761903692

>  <Real charge>  (2) 
0

>  <Mult>  (2) 
1

$$$$
mol_594 219
     RDKit          3D

 43 45  0  0  0  0  0  0  0  0999 V2000
    0.2492   -0.0553   -3.3937 O   0  0  0  0  0  0  0  0  0  0  0  0
    0.0178    0.2186   -2.2282 C   0  0  0  0  0  0  0  0  0  0  0  0
    0.8597    0.7802   -1.3304 N   0  0  0  0  0  0  0  0  0  0  0  0
    2.2256    1.1269   -1.6030 C   0  0  0  0  0  0  0  0  0  0  0  0
    3.0300   -0.0138   -1.3049 O   0  0  0  0  0  0  0  0  0  0  0  0
    4.3560    0.2107   -1.4939 C   0  0  0  0  0  0  0  0  0  0  0  0
    4.8432    1.2622   -1.8846 O   0  0  0  0  0  0  0  0  0  0  0  0
    5.1543   -1.0197   -1.1534 C   0  0  0  0  0  0  0  0  0  0  0  0
    5.1860   -1.2555    0.3438 C   0  0  0  0  0  0  0  0  0  0  0  0
    0.2828    0.8228   -0.0927 C   0  0  0  0  0  0  0  0  0  0  0  0
    0.8380    1.2200    0.9271 O   0  0  0  0  0  0  0  0  0  0  0  0
   -1.1700    0.2594   -0.1944 C   0  0  0  0  0  0  0  0  0  0  0  0
   -1.1838   -0.0274   -1.6181 N   0  0  0  0  0  0  0  0  0  0  0  0
   -1.3971   -1.0630    0.5548 C   0  0  0  0  0  0  0  0  0  0  0  0
   -0.3753   -1.7300    1.2531 C   0  0  0  0  0  0  0  0  0  0  0  0
   -0.6225   -2.9428    1.9034 C   0  0  0  0  0  0  0  0  0  0  0  0
   -1.8909   -3.5147    1.8657 C   0  0  0  0  0  0  0  0  0  0  0  0
   -2.9170   -2.8763    1.1772 C   0  0  0  0  0  0  0  0  0  0  0  0
   -2.6732   -1.6653    0.5265 C   0  0  0  0  0  0  0  0  0  0  0  0
   -2.1728    1.3560    0.1948 C   0  0  0  0  0  0  0  0  0  0  0  0
   -2.2780    1.7573    1.5413 C   0  0  0  0  0  0  0  0  0  0  0  0
   -3.1779    2.7515    1.9299 C   0  0  0  0  0  0  0  0  0  0  0  0
   -3.9885    3.3671    0.9812 C   0  0  0  0  0  0  0  0  0  0  0  0
   -3.8981    2.9913   -0.3562 C   0  0  0  0  0  0  0  0  0  0  0  0
   -2.9982    1.9964   -0.7480 C   0  0  0  0  0  0  0  0  0  0  0  0
    2.5138    1.9677   -0.9619 H   0  0  0  0  0  0  0  0  0  0  0  0
    2.3281    1.3908   -2.6616 H   0  0  0  0  0  0  0  0  0  0  0  0
    4.7282   -1.8791   -1.6820 H   0  0  0  0  0  0  0  0  0  0  0  0
    6.1725   -0.8835   -1.5342 H   0  0  0  0  0  0  0  0  0  0  0  0
    5.5981   -0.3872    0.8686 H   0  0  0  0  0  0  0  0  0  0  0  0
    4.1802   -1.4349    0.7380 H   0  0  0  0  0  0  0  0  0  0  0  0
    5.8050   -2.1262    0.5801 H   0  0  0  0  0  0  0  0  0  0  0  0
   -1.8928   -0.5762   -2.0820 H   0  0  0  0  0  0  0  0  0  0  0  0
    0.6327   -1.3249    1.3138 H   0  0  0  0  0  0  0  0  0  0  0  0
    0.1802   -3.4408    2.4423 H   0  0  0  0  0  0  0  0  0  0  0  0
   -2.0789   -4.4568    2.3740 H   0  0  0  0  0  0  0  0  0  0  0  0
   -3.9095   -3.3191    1.1478 H   0  0  0  0  0  0  0  0  0  0  0  0
   -3.4969   -1.1859   -0.0005 H   0  0  0  0  0  0  0  0  0  0  0  0
   -1.6502    1.2965    2.3041 H   0  0  0  0  0  0  0  0  0  0  0  0
   -3.2416    3.0463    2.9744 H   0  0  0  0  0  0  0  0  0  0  0  0
   -4.6874    4.1427    1.2835 H   0  0  0  0  0  0  0  0  0  0  0  0
   -4.5274    3.4764   -1.0985 H   0  0  0  0  0  0  0  0  0  0  0  0
   -2.9536    1.7375   -1.8035 H   0  0  0  0  0  0  0  0  0  0  0  0
  1  2  2  0
  2  3  1  0
  3  4  1  0
  4  5  1  0
  5  6  1  0
  6  7  2  0
  6  8  1  0
  8  9  1  0
  3 10  1  0
 10 11  2  0
 10 12  1  0
 12 13  1  0
 12 14  1  0
 14 15  2  0
 15 16  1  0
 16 17  2  0
 17 18  1  0
 18 19  2  0
 12 20  1  0
 20 21  2  0
 21 22  1  0
 22 23  2  0
 23 24  1  0
 24 25  2  0
 13  2  1  0
 19 14  1  0
 25 20  1  0
  4 26  1  0
  4 27  1  0
  8 28  1  0
  8 29  1  0
  9 30  1  0
  9 31  1  0
  9 32  1  0
 13 33  1  0
 15 34  1  0
 16 35  1  0
 17 36  1  0
 18 37  1  0
 19 38  1  0
 21 39  1  0
 22 40  1  0
 23 41  1  0
 24 42  1  0
 25 43  1  0
M  END
>  <Energy>  (3) 
-37.30044922239471

>  <Real charge>  (3) 
0

>  <Mult>  (3) 
1

$$$$
mol_594 380
     RDKit          3D

 43 45  0  0  0  0  0  0  0  0999 V2000
    1.9638    1.0341    2.2175 O   0  0  0  0  0  0  0  0  0  0  0  0
    1.1035    0.9274    1.3598 C   0  0  0  0  0  0  0  0  0  0  0  0
    1.2589    1.0262    0.0195 N   0  0  0  0  0  0  0  0  0  0  0  0
    2.5151    1.2507   -0.6377 C   0  0  0  0  0  0  0  0  0  0  0  0
    3.1152   -0.0224   -0.8749 O   0  0  0  0  0  0  0  0  0  0  0  0
    4.3274    0.0705   -1.4802 C   0  0  0  0  0  0  0  0  0  0  0  0
    4.8718    1.1150   -1.8095 O   0  0  0  0  0  0  0  0  0  0  0  0
    4.9206   -1.2975   -1.6878 C   0  0  0  0  0  0  0  0  0  0  0  0
    5.4447   -1.8676   -0.3850 C   0  0  0  0  0  0  0  0  0  0  0  0
    0.0894    0.7315   -0.6223 C   0  0  0  0  0  0  0  0  0  0  0  0
   -0.0487    0.6786   -1.8405 O   0  0  0  0  0  0  0  0  0  0  0  0
   -1.0149    0.4516    0.4459 C   0  0  0  0  0  0  0  0  0  0  0  0
   -0.2117    0.6635    1.6372 N   0  0  0  0  0  0  0  0  0  0  0  0
   -2.1397    1.4882    0.3027 C   0  0  0  0  0  0  0  0  0  0  0  0
   -3.0069    1.4258   -0.8060 C   0  0  0  0  0  0  0  0  0  0  0  0
   -4.0387    2.3523   -0.9681 C   0  0  0  0  0  0  0  0  0  0  0  0
   -4.2233    3.3614   -0.0280 C   0  0  0  0  0  0  0  0  0  0  0  0
   -3.3752    3.4465    1.0726 C   0  0  0  0  0  0  0  0  0  0  0  0
   -2.3415    2.5205    1.2375 C   0  0  0  0  0  0  0  0  0  0  0  0
   -1.5267   -0.9970    0.4742 C   0  0  0  0  0  0  0  0  0  0  0  0
   -1.0281   -1.9997   -0.3757 C   0  0  0  0  0  0  0  0  0  0  0  0
   -1.5095   -3.3103   -0.3008 C   0  0  0  0  0  0  0  0  0  0  0  0
   -2.4931   -3.6459    0.6251 C   0  0  0  0  0  0  0  0  0  0  0  0
   -2.9990   -2.6724    1.4799 C   0  0  0  0  0  0  0  0  0  0  0  0
   -2.5200   -1.3628    1.4078 C   0  0  0  0  0  0  0  0  0  0  0  0
    3.1583    1.8548    0.0122 H   0  0  0  0  0  0  0  0  0  0  0  0
    2.3341    1.7613   -1.5902 H   0  0  0  0  0  0  0  0  0  0  0  0
    4.1634   -1.9526   -2.1320 H   0  0  0  0  0  0  0  0  0  0  0  0
    5.7334   -1.2115   -2.4175 H   0  0  0  0  0  0  0  0  0  0  0  0
    5.9072   -2.8447   -0.5543 H   0  0  0  0  0  0  0  0  0  0  0  0
    6.1941   -1.2043    0.0597 H   0  0  0  0  0  0  0  0  0  0  0  0
    4.6381   -1.9933    0.3447 H   0  0  0  0  0  0  0  0  0  0  0  0
   -0.5003    0.4136    2.5717 H   0  0  0  0  0  0  0  0  0  0  0  0
   -2.8807    0.6499   -1.5611 H   0  0  0  0  0  0  0  0  0  0  0  0
   -4.6955    2.2859   -1.8320 H   0  0  0  0  0  0  0  0  0  0  0  0
   -5.0252    4.0838   -0.1556 H   0  0  0  0  0  0  0  0  0  0  0  0
   -3.5158    4.2385    1.8043 H   0  0  0  0  0  0  0  0  0  0  0  0
   -1.6969    2.6269    2.1072 H   0  0  0  0  0  0  0  0  0  0  0  0
   -0.2603   -1.7891   -1.1173 H   0  0  0  0  0  0  0  0  0  0  0  0
   -1.1142   -4.0706   -0.9704 H   0  0  0  0  0  0  0  0  0  0  0  0
   -2.8655   -4.6656    0.6786 H   0  0  0  0  0  0  0  0  0  0  0  0
   -3.7692   -2.9306    2.2025 H   0  0  0  0  0  0  0  0  0  0  0  0
   -2.9383   -0.6207    2.0861 H   0  0  0  0  0  0  0  0  0  0  0  0
  1  2  2  0
  2  3  1  0
  3  4  1  0
  4  5  1  0
  5  6  1  0
  6  7  2  0
  6  8  1  0
  8  9  1  0
  3 10  1  0
 10 11  2  0
 10 12  1  0
 12 13  1  0
 12 14  1  0
 14 15  2  0
 15 16  1  0
 16 17  2  0
 17 18  1  0
 18 19  2  0
 12 20  1  0
 20 21  2  0
 21 22  1  0
 22 23  2  0
 23 24  1  0
 24 25  2  0
 13  2  1  0
 19 14  1  0
 25 20  1  0
  4 26  1  0
  4 27  1  0
  8 28  1  0
  8 29  1  0
  9 30  1  0
  9 31  1  0
  9 32  1  0
 13 33  1  0
 15 34  1  0
 16 35  1  0
 17 36  1  0
 18 37  1  0
 19 38  1  0
 21 39  1  0
 22 40  1  0
 23 41  1  0
 24 42  1  0
 25 43  1  0
M  END
>  <Energy>  (4) 
-37.24869490842055

>  <Real charge>  (4) 
0

>  <Mult>  (4) 
1

$$$$
mol_594 414
     RDKit          3D

 43 45  0  0  0  0  0  0  0  0999 V2000
    0.7997    3.3211   -0.1421 O   0  0  0  0  0  0  0  0  0  0  0  0
    0.3764    2.1851   -0.2738 C   0  0  0  0  0  0  0  0  0  0  0  0
    0.9925    1.1393   -0.8708 N   0  0  0  0  0  0  0  0  0  0  0  0
    2.3154    1.1813   -1.4268 C   0  0  0  0  0  0  0  0  0  0  0  0
    3.2250    0.7601   -0.4115 O   0  0  0  0  0  0  0  0  0  0  0  0
    4.5118    0.7099   -0.8424 C   0  0  0  0  0  0  0  0  0  0  0  0
    4.8884    0.9990   -1.9696 O   0  0  0  0  0  0  0  0  0  0  0  0
    5.4210    0.2390    0.2613 C   0  0  0  0  0  0  0  0  0  0  0  0
    5.2729   -1.2519    0.4905 C   0  0  0  0  0  0  0  0  0  0  0  0
    0.1893    0.0340   -0.8552 C   0  0  0  0  0  0  0  0  0  0  0  0
    0.4807   -1.0518   -1.3473 O   0  0  0  0  0  0  0  0  0  0  0  0
   -1.1467    0.3905   -0.1286 C   0  0  0  0  0  0  0  0  0  0  0  0
   -0.8524    1.7799    0.1737 N   0  0  0  0  0  0  0  0  0  0  0  0
   -1.2849   -0.4715    1.1360 C   0  0  0  0  0  0  0  0  0  0  0  0
   -1.5927   -1.8411    1.0147 C   0  0  0  0  0  0  0  0  0  0  0  0
   -1.7225   -2.6546    2.1420 C   0  0  0  0  0  0  0  0  0  0  0  0
   -1.5429   -2.1178    3.4130 C   0  0  0  0  0  0  0  0  0  0  0  0
   -1.2299   -0.7691    3.5575 C   0  0  0  0  0  0  0  0  0  0  0  0
   -1.0995    0.0475    2.4308 C   0  0  0  0  0  0  0  0  0  0  0  0
   -2.3967    0.3562   -1.0207 C   0  0  0  0  0  0  0  0  0  0  0  0
   -2.3609   -0.0195   -2.3746 C   0  0  0  0  0  0  0  0  0  0  0  0
   -3.5239   -0.0218   -3.1509 C   0  0  0  0  0  0  0  0  0  0  0  0
   -4.7428    0.3516   -2.5922 C   0  0  0  0  0  0  0  0  0  0  0  0
   -4.8040    0.7273   -1.2544 C   0  0  0  0  0  0  0  0  0  0  0  0
   -3.6443    0.7308   -0.4769 C   0  0  0  0  0  0  0  0  0  0  0  0
    2.3644    0.4989   -2.2829 H   0  0  0  0  0  0  0  0  0  0  0  0
    2.5489    2.2067   -1.7345 H   0  0  0  0  0  0  0  0  0  0  0  0
    5.2006    0.8049    1.1728 H   0  0  0  0  0  0  0  0  0  0  0  0
    6.4528    0.4779   -0.0193 H   0  0  0  0  0  0  0  0  0  0  0  0
    4.2553   -1.5045    0.8064 H   0  0  0  0  0  0  0  0  0  0  0  0
    5.4844   -1.8123   -0.4262 H   0  0  0  0  0  0  0  0  0  0  0  0
    5.9653   -1.5895    1.2677 H   0  0  0  0  0  0  0  0  0  0  0  0
   -1.5072    2.4348    0.5747 H   0  0  0  0  0  0  0  0  0  0  0  0
   -1.7302   -2.2899    0.0310 H   0  0  0  0  0  0  0  0  0  0  0  0
   -1.9603   -3.7089    2.0246 H   0  0  0  0  0  0  0  0  0  0  0  0
   -1.6417   -2.7516    4.2904 H   0  0  0  0  0  0  0  0  0  0  0  0
   -1.0824   -0.3510    4.5504 H   0  0  0  0  0  0  0  0  0  0  0  0
   -0.8441    1.0931    2.5879 H   0  0  0  0  0  0  0  0  0  0  0  0
   -1.4357   -0.3258   -2.8580 H   0  0  0  0  0  0  0  0  0  0  0  0
   -3.4760   -0.3193   -4.1959 H   0  0  0  0  0  0  0  0  0  0  0  0
   -5.6445    0.3466   -3.1990 H   0  0  0  0  0  0  0  0  0  0  0  0
   -5.7552    1.0149   -0.8136 H   0  0  0  0  0  0  0  0  0  0  0  0
   -3.7234    1.0215    0.5696 H   0  0  0  0  0  0  0  0  0  0  0  0
  1  2  2  0
  2  3  1  0
  3  4  1  0
  4  5  1  0
  5  6  1  0
  6  7  2  0
  6  8  1  0
  8  9  1  0
  3 10  1  0
 10 11  2  0
 10 12  1  0
 12 13  1  0
 12 14  1  0
 14 15  2  0
 15 16  1  0
 16 17  2  0
 17 18  1  0
 18 19  2  0
 12 20  1  0
 20 21  2  0
 21 22  1  0
 22 23  2  0
 23 24  1  0
 24 25  2  0
 13  2  1  0
 19 14  1  0
 25 20  1  0
  4 26  1  0
  4 27  1  0
  8 28  1  0
  8 29  1  0
  9 30  1  0
  9 31  1  0
  9 32  1  0
 13 33  1  0
 15 34  1  0
 16 35  1  0
 17 36  1  0
 18 37  1  0
 19 38  1  0
 21 39  1  0
 22 40  1  0
 23 41  1  0
 24 42  1  0
 25 43  1  0
M  END
>  <Energy>  (5) 
-37.038541307679836

>  <Real charge>  (5) 
0

>  <Mult>  (5) 
1

$$$$
mol_594 130
     RDKit          3D

 43 45  0  0  0  0  0  0  0  0999 V2000
    1.5096   -0.0594   -2.8674 O   0  0  0  0  0  0  0  0  0  0  0  0
    0.8375    0.1705   -1.8763 C   0  0  0  0  0  0  0  0  0  0  0  0
    1.2420    0.7453   -0.7204 N   0  0  0  0  0  0  0  0  0  0  0  0
    2.5902    1.1520   -0.4416 C   0  0  0  0  0  0  0  0  0  0  0  0
    3.2509    0.0571    0.1914 O   0  0  0  0  0  0  0  0  0  0  0  0
    4.5401    0.3343    0.5156 C   0  0  0  0  0  0  0  0  0  0  0  0
    5.1065    1.3973    0.3027 O   0  0  0  0  0  0  0  0  0  0  0  0
    5.1888   -0.8568    1.1688 C   0  0  0  0  0  0  0  0  0  0  0  0
    5.5357   -1.9176    0.1437 C   0  0  0  0  0  0  0  0  0  0  0  0
    0.1948    0.8688    0.1485 C   0  0  0  0  0  0  0  0  0  0  0  0
    0.2645    1.3766    1.2635 O   0  0  0  0  0  0  0  0  0  0  0  0
   -1.0877    0.2765   -0.5184 C   0  0  0  0  0  0  0  0  0  0  0  0
   -0.4969   -0.1214   -1.7838 N   0  0  0  0  0  0  0  0  0  0  0  0
   -2.1935    1.3007   -0.8153 C   0  0  0  0  0  0  0  0  0  0  0  0
   -3.3646    0.8797   -1.4813 C   0  0  0  0  0  0  0  0  0  0  0  0
   -4.3894    1.7787   -1.7832 C   0  0  0  0  0  0  0  0  0  0  0  0
   -4.2660    3.1179   -1.4286 C   0  0  0  0  0  0  0  0  0  0  0  0
   -3.1204    3.5568   -0.7712 C   0  0  0  0  0  0  0  0  0  0  0  0
   -2.0926    2.6587   -0.4672 C   0  0  0  0  0  0  0  0  0  0  0  0
   -1.5827   -0.9233    0.3042 C   0  0  0  0  0  0  0  0  0  0  0  0
   -2.2036   -0.7046    1.5499 C   0  0  0  0  0  0  0  0  0  0  0  0
   -2.6627   -1.7713    2.3251 C   0  0  0  0  0  0  0  0  0  0  0  0
   -2.5067   -3.0783    1.8739 C   0  0  0  0  0  0  0  0  0  0  0  0
   -1.8886   -3.3196    0.6501 C   0  0  0  0  0  0  0  0  0  0  0  0
   -1.4283   -2.2536   -0.1278 C   0  0  0  0  0  0  0  0  0  0  0  0
    3.0954    1.4010   -1.3816 H   0  0  0  0  0  0  0  0  0  0  0  0
    2.5720    2.0178    0.2299 H   0  0  0  0  0  0  0  0  0  0  0  0
    6.0944   -0.5151    1.6823 H   0  0  0  0  0  0  0  0  0  0  0  0
    4.5182   -1.2529    1.9390 H   0  0  0  0  0  0  0  0  0  0  0  0
    6.1998   -1.5146   -0.6282 H   0  0  0  0  0  0  0  0  0  0  0  0
    4.6367   -2.2940   -0.3556 H   0  0  0  0  0  0  0  0  0  0  0  0
    6.0390   -2.7625    0.6235 H   0  0  0  0  0  0  0  0  0  0  0  0
   -1.0121   -0.4785   -2.5746 H   0  0  0  0  0  0  0  0  0  0  0  0
   -3.4920   -0.1644   -1.7635 H   0  0  0  0  0  0  0  0  0  0  0  0
   -5.2849    1.4315   -2.2925 H   0  0  0  0  0  0  0  0  0  0  0  0
   -5.0630    3.8193   -1.6611 H   0  0  0  0  0  0  0  0  0  0  0  0
   -3.0249    4.6031   -0.4901 H   0  0  0  0  0  0  0  0  0  0  0  0
   -1.2217    3.0518    0.0528 H   0  0  0  0  0  0  0  0  0  0  0  0
   -2.3312    0.3083    1.9317 H   0  0  0  0  0  0  0  0  0  0  0  0
   -3.1387   -1.5791    3.2834 H   0  0  0  0  0  0  0  0  0  0  0  0
   -2.8620   -3.9087    2.4784 H   0  0  0  0  0  0  0  0  0  0  0  0
   -1.7601   -4.3412    0.3008 H   0  0  0  0  0  0  0  0  0  0  0  0
   -0.9422   -2.4869   -1.0725 H   0  0  0  0  0  0  0  0  0  0  0  0
  1  2  2  0
  2  3  1  0
  3  4  1  0
  4  5  1  0
  5  6  1  0
  6  7  2  0
  6  8  1  0
  8  9  1  0
  3 10  1  0
 10 11  2  0
 10 12  1  0
 12 13  1  0
 12 14  1  0
 14 15  2  0
 15 16  1  0
 16 17  2  0
 17 18  1  0
 18 19  2  0
 12 20  1  0
 20 21  2  0
 21 22  1  0
 22 23  2  0
 23 24  1  0
 24 25  2  0
 13  2  1  0
 19 14  1  0
 25 20  1  0
  4 26  1  0
  4 27  1  0
  8 28  1  0
  8 29  1  0
  9 30  1  0
  9 31  1  0
  9 32  1  0
 13 33  1  0
 15 34  1  0
 16 35  1  0
 17 36  1  0
 18 37  1  0
 19 38  1  0
 21 39  1  0
 22 40  1  0
 23 41  1  0
 24 42  1  0
 25 43  1  0
M  END
>  <Energy>  (6) 
-37.01079288134002

>  <Real charge>  (6) 
0

>  <Mult>  (6) 
1

$$$$
