mol_110 145
     RDKit          3D

 31 33  0  0  0  0  0  0  0  0999 V2000
   -2.2685    1.8701    0.2018 O   0  0  0  0  0  0  0  0  0  0  0  0
   -3.1240    1.0840    1.0274 C   0  0  0  0  0  0  0  0  0  0  0  0
   -2.6997   -0.3886    1.0199 C   0  0  0  0  0  0  0  0  0  0  0  0
   -1.4041   -0.4948    1.6612 O   0  0  0  0  0  0  0  0  0  0  0  0
   -0.4281   -0.8449    0.6582 C   0  0  0  0  0  0  0  0  0  0  0  0
   -1.0925   -0.7175   -0.7164 C   0  0  0  0  0  0  0  0  0  0  0  0
   -0.6286   -1.6786   -1.6746 O   0  0  0  0  0  0  0  0  0  0  0  0
   -2.5480   -0.9762   -0.3797 C   0  0  0  0  0  0  0  0  0  0  0  0
   -2.7688   -2.3962   -0.3325 O   0  0  0  0  0  0  0  0  0  0  0  0
    0.7448    0.0004    0.7974 N   0  0  0  0  0  0  0  0  0  0  0  0
    0.9660    0.9793    1.7273 C   0  0  0  0  0  0  0  0  0  0  0  0
    2.1491    1.5403    1.5809 N   0  0  0  0  0  0  0  0  0  0  0  0
    2.7212    0.8922    0.5090 C   0  0  0  0  0  0  0  0  0  0  0  0
    3.9410    0.9995   -0.1534 C   0  0  0  0  0  0  0  0  0  0  0  0
    4.9205    1.8869    0.1916 O   0  0  0  0  0  0  0  0  0  0  0  0
    4.2359    0.2117   -1.2044 N   0  0  0  0  0  0  0  0  0  0  0  0
    3.2942   -0.6784   -1.5828 C   0  0  0  0  0  0  0  0  0  0  0  0
    2.0709   -0.8899   -1.0452 N   0  0  0  0  0  0  0  0  0  0  0  0
    1.8599   -0.0707    0.0043 C   0  0  0  0  0  0  0  0  0  0  0  0
   -2.4919    2.8043    0.3682 H   0  0  0  0  0  0  0  0  0  0  0  0
   -4.1479    1.1905    0.6565 H   0  0  0  0  0  0  0  0  0  0  0  0
   -3.0648    1.4853    2.0445 H   0  0  0  0  0  0  0  0  0  0  0  0
   -3.4048   -0.9679    1.6261 H   0  0  0  0  0  0  0  0  0  0  0  0
   -0.0951   -1.8711    0.8563 H   0  0  0  0  0  0  0  0  0  0  0  0
   -0.9598    0.2806   -1.1465 H   0  0  0  0  0  0  0  0  0  0  0  0
    0.3410   -1.5401   -1.7491 H   0  0  0  0  0  0  0  0  0  0  0  0
   -3.2465   -0.5669   -1.1149 H   0  0  0  0  0  0  0  0  0  0  0  0
   -2.2639   -2.7539   -1.0938 H   0  0  0  0  0  0  0  0  0  0  0  0
    0.2378    1.2412    2.4852 H   0  0  0  0  0  0  0  0  0  0  0  0
    5.6016    1.6750   -0.4685 H   0  0  0  0  0  0  0  0  0  0  0  0
    3.5532   -1.3058   -2.4321 H   0  0  0  0  0  0  0  0  0  0  0  0
  1  2  1  0
  2  3  1  0
  3  4  1  0
  4  5  1  0
  5  6  1  0
  6  7  1  0
  6  8  1  0
  8  9  1  0
  5 10  1  0
 10 11  1  0
 11 12  2  0
 12 13  1  0
 13 14  2  0
 14 15  1  0
 14 16  1  0
 16 17  2  0
 17 18  1  0
 18 19  2  0
  8  3  1  0
 19 10  1  0
 19 13  1  0
  1 20  1  0
  2 21  1  0
  2 22  1  0
  3 23  1  0
  5 24  1  0
  6 25  1  0
  7 26  1  0
  8 27  1  0
  9 28  1  0
 11 29  1  0
 15 30  1  0
 17 31  1  0
M  END
>  <Energy>  (1) 
80.4535525752933

>  <Real charge>  (1) 
0

>  <Mult>  (1) 
1

$$$$
mol_110 106
     RDKit          3D

 31 33  0  0  0  0  0  0  0  0999 V2000
   -2.1901    1.8721    0.2885 O   0  0  0  0  0  0  0  0  0  0  0  0
   -3.0456    1.3079   -0.7023 C   0  0  0  0  0  0  0  0  0  0  0  0
   -2.6452   -0.1364   -1.0222 C   0  0  0  0  0  0  0  0  0  0  0  0
   -1.3347   -0.1220   -1.6420 O   0  0  0  0  0  0  0  0  0  0  0  0
   -0.3934   -0.7194   -0.7262 C   0  0  0  0  0  0  0  0  0  0  0  0
   -1.0904   -0.8890    0.6276 C   0  0  0  0  0  0  0  0  0  0  0  0
   -0.6707   -2.0520    1.3534 O   0  0  0  0  0  0  0  0  0  0  0  0
   -2.5408   -1.0304    0.2096 C   0  0  0  0  0  0  0  0  0  0  0  0
   -2.7853   -2.3964   -0.1657 O   0  0  0  0  0  0  0  0  0  0  0  0
    0.8016    0.1027   -0.6477 N   0  0  0  0  0  0  0  0  0  0  0  0
    1.0785    1.2499   -1.3452 C   0  0  0  0  0  0  0  0  0  0  0  0
    2.2703    1.7348   -1.0526 N   0  0  0  0  0  0  0  0  0  0  0  0
    2.7796    0.8552   -0.1268 C   0  0  0  0  0  0  0  0  0  0  0  0
    3.9859    0.8076    0.5662 C   0  0  0  0  0  0  0  0  0  0  0  0
    4.9646    1.7549    0.3984 O   0  0  0  0  0  0  0  0  0  0  0  0
    4.2330   -0.1876    1.4383 N   0  0  0  0  0  0  0  0  0  0  0  0
    3.2685   -1.1163    1.6036 C   0  0  0  0  0  0  0  0  0  0  0  0
    2.0541   -1.1889    1.0047 N   0  0  0  0  0  0  0  0  0  0  0  0
    1.8866   -0.1668    0.1436 C   0  0  0  0  0  0  0  0  0  0  0  0
   -2.4244    2.8155    0.3620 H   0  0  0  0  0  0  0  0  0  0  0  0
   -2.9641    1.9269   -1.6017 H   0  0  0  0  0  0  0  0  0  0  0  0
   -4.0735    1.3472   -0.3290 H   0  0  0  0  0  0  0  0  0  0  0  0
   -3.3435   -0.5470   -1.7596 H   0  0  0  0  0  0  0  0  0  0  0  0
   -0.0789   -1.6826   -1.1462 H   0  0  0  0  0  0  0  0  0  0  0  0
   -0.9513   -0.0165    1.2743 H   0  0  0  0  0  0  0  0  0  0  0  0
    0.2973   -1.9533    1.4900 H   0  0  0  0  0  0  0  0  0  0  0  0
   -3.2512   -0.7831    1.0036 H   0  0  0  0  0  0  0  0  0  0  0  0
   -2.3095   -2.9304    0.5060 H   0  0  0  0  0  0  0  0  0  0  0  0
    0.3800    1.6838   -2.0507 H   0  0  0  0  0  0  0  0  0  0  0  0
    4.5957    2.3683   -0.2638 H   0  0  0  0  0  0  0  0  0  0  0  0
    3.4970   -1.9086    2.3121 H   0  0  0  0  0  0  0  0  0  0  0  0
  1  2  1  0
  2  3  1  0
  3  4  1  0
  4  5  1  0
  5  6  1  0
  6  7  1  0
  6  8  1  0
  8  9  1  0
  5 10  1  0
 10 11  1  0
 11 12  2  0
 12 13  1  0
 13 14  2  0
 14 15  1  0
 14 16  1  0
 16 17  2  0
 17 18  1  0
 18 19  2  0
  8  3  1  0
 19 10  1  0
 19 13  1  0
  1 20  1  0
  2 21  1  0
  2 22  1  0
  3 23  1  0
  5 24  1  0
  6 25  1  0
  7 26  1  0
  8 27  1  0
  9 28  1  0
 11 29  1  0
 15 30  1  0
 17 31  1  0
M  END
>  <Energy>  (2) 
80.65179762499206

>  <Real charge>  (2) 
0

>  <Mult>  (2) 
1

$$$$
