mol_1099 238
     RDKit          3D

 26 27  0  0  0  0  0  0  0  0999 V2000
    0.4281   -0.5349    0.5149 N   0  0  0  0  0  0  0  0  0  0  0  0
   -0.4348    0.5292    0.5152 N   0  0  0  0  0  0  0  0  0  0  0  0
   -1.8122    0.3749    0.2422 C   0  0  0  0  0  0  0  0  0  0  0  0
   -2.3091   -0.7413   -0.4425 C   0  0  0  0  0  0  0  0  0  0  0  0
   -3.6683   -0.8485   -0.7495 C   0  0  0  0  0  0  0  0  0  0  0  0
   -4.5455    0.1732   -0.3942 C   0  0  0  0  0  0  0  0  0  0  0  0
   -4.0615    1.3060    0.2558 C   0  0  0  0  0  0  0  0  0  0  0  0
   -2.7013    1.4101    0.5608 C   0  0  0  0  0  0  0  0  0  0  0  0
    1.8091   -0.3776    0.2626 C   0  0  0  0  0  0  0  0  0  0  0  0
    2.3153    0.7466   -0.4019 C   0  0  0  0  0  0  0  0  0  0  0  0
    3.6785    0.8573   -0.6889 C   0  0  0  0  0  0  0  0  0  0  0  0
    4.5509   -0.1686   -0.3337 C   0  0  0  0  0  0  0  0  0  0  0  0
    4.0581   -1.3089    0.2962 C   0  0  0  0  0  0  0  0  0  0  0  0
    2.6939   -1.4165    0.5812 C   0  0  0  0  0  0  0  0  0  0  0  0
    0.2397   -1.2403    1.2277 H   0  0  0  0  0  0  0  0  0  0  0  0
   -0.2562    1.2261    1.2388 H   0  0  0  0  0  0  0  0  0  0  0  0
   -1.6328   -1.5334   -0.7533 H   0  0  0  0  0  0  0  0  0  0  0  0
   -4.0358   -1.7249   -1.2763 H   0  0  0  0  0  0  0  0  0  0  0  0
   -5.6017    0.0929   -0.6369 H   0  0  0  0  0  0  0  0  0  0  0  0
   -4.7397    2.1137    0.5180 H   0  0  0  0  0  0  0  0  0  0  0  0
   -2.3411    2.3105    1.0507 H   0  0  0  0  0  0  0  0  0  0  0  0
    1.6433    1.5424   -0.7126 H   0  0  0  0  0  0  0  0  0  0  0  0
    4.0532    1.7398   -1.2003 H   0  0  0  0  0  0  0  0  0  0  0  0
    5.6103   -0.0855   -0.5608 H   0  0  0  0  0  0  0  0  0  0  0  0
    4.7326   -2.1197    0.5582 H   0  0  0  0  0  0  0  0  0  0  0  0
    2.3270   -2.3226    1.0555 H   0  0  0  0  0  0  0  0  0  0  0  0
  1  2  1  0
  2  3  1  0
  3  4  2  0
  4  5  1  0
  5  6  2  0
  6  7  1  0
  7  8  2  0
  1  9  1  0
  9 10  2  0
 10 11  1  0
 11 12  2  0
 12 13  1  0
 13 14  2  0
  8  3  1  0
 14  9  1  0
  1 15  1  0
  2 16  1  0
  4 17  1  0
  5 18  1  0
  6 19  1  0
  7 20  1  0
  8 21  1  0
 10 22  1  0
 11 23  1  0
 12 24  1  0
 13 25  1  0
 14 26  1  0
M  END
>  <Energy>  (1) 
45.482700318068524

>  <Real charge>  (1) 
0

>  <Mult>  (1) 
1

$$$$
mol_1099 91
     RDKit          3D

 26 27  0  0  0  0  0  0  0  0999 V2000
    0.3506   -0.9131    1.1907 N   0  0  0  0  0  0  0  0  0  0  0  0
   -0.4970    0.1291    1.4281 N   0  0  0  0  0  0  0  0  0  0  0  0
   -1.5497    0.5125    0.5680 C   0  0  0  0  0  0  0  0  0  0  0  0
   -2.2958    1.6598    0.8726 C   0  0  0  0  0  0  0  0  0  0  0  0
   -3.3833    2.0416    0.0820 C   0  0  0  0  0  0  0  0  0  0  0  0
   -3.7516    1.2680   -1.0155 C   0  0  0  0  0  0  0  0  0  0  0  0
   -3.0383    0.1103   -1.3157 C   0  0  0  0  0  0  0  0  0  0  0  0
   -1.9522   -0.2694   -0.5216 C   0  0  0  0  0  0  0  0  0  0  0  0
    1.4883   -0.8415    0.3567 C   0  0  0  0  0  0  0  0  0  0  0  0
    2.2312   -2.0056    0.1151 C   0  0  0  0  0  0  0  0  0  0  0  0
    3.3970   -1.9682   -0.6550 C   0  0  0  0  0  0  0  0  0  0  0  0
    3.8466   -0.7591   -1.1789 C   0  0  0  0  0  0  0  0  0  0  0  0
    3.1357    0.4111   -0.9252 C   0  0  0  0  0  0  0  0  0  0  0  0
    1.9710    0.3701   -0.1530 C   0  0  0  0  0  0  0  0  0  0  0  0
   -0.0841   -1.8354    1.1991 H   0  0  0  0  0  0  0  0  0  0  0  0
   -0.0882    0.9125    1.9370 H   0  0  0  0  0  0  0  0  0  0  0  0
   -2.0364    2.2667    1.7360 H   0  0  0  0  0  0  0  0  0  0  0  0
   -3.9452    2.9383    0.3288 H   0  0  0  0  0  0  0  0  0  0  0  0
   -4.5973    1.5620   -1.6313 H   0  0  0  0  0  0  0  0  0  0  0  0
   -3.3259   -0.5020   -2.1662 H   0  0  0  0  0  0  0  0  0  0  0  0
   -1.4127   -1.1774   -0.7741 H   0  0  0  0  0  0  0  0  0  0  0  0
    1.9076   -2.9562    0.5309 H   0  0  0  0  0  0  0  0  0  0  0  0
    3.9557   -2.8820   -0.8384 H   0  0  0  0  0  0  0  0  0  0  0  0
    4.7532   -0.7269   -1.7772 H   0  0  0  0  0  0  0  0  0  0  0  0
    3.4860    1.3591   -1.3246 H   0  0  0  0  0  0  0  0  0  0  0  0
    1.4348    1.2958    0.0331 H   0  0  0  0  0  0  0  0  0  0  0  0
  1  2  1  0
  2  3  1  0
  3  4  2  0
  4  5  1  0
  5  6  2  0
  6  7  1  0
  7  8  2  0
  1  9  1  0
  9 10  2  0
 10 11  1  0
 11 12  2  0
 12 13  1  0
 13 14  2  0
  8  3  1  0
 14  9  1  0
  1 15  1  0
  2 16  1  0
  4 17  1  0
  5 18  1  0
  6 19  1  0
  7 20  1  0
  8 21  1  0
 10 22  1  0
 11 23  1  0
 12 24  1  0
 13 25  1  0
 14 26  1  0
M  END
>  <Energy>  (2) 
45.702191732767965

>  <Real charge>  (2) 
0

>  <Mult>  (2) 
1

$$$$
mol_1099 25
     RDKit          3D

 26 27  0  0  0  0  0  0  0  0999 V2000
    0.4893   -0.6425   -1.2878 N   0  0  0  0  0  0  0  0  0  0  0  0
   -0.5878   -1.2183   -0.6754 N   0  0  0  0  0  0  0  0  0  0  0  0
   -1.7193   -0.4886   -0.2525 C   0  0  0  0  0  0  0  0  0  0  0  0
   -1.9273    0.8438   -0.6288 C   0  0  0  0  0  0  0  0  0  0  0  0
   -3.0845    1.5266   -0.2441 C   0  0  0  0  0  0  0  0  0  0  0  0
   -4.0610    0.8756    0.5057 C   0  0  0  0  0  0  0  0  0  0  0  0
   -3.8834   -0.4587    0.8634 C   0  0  0  0  0  0  0  0  0  0  0  0
   -2.7240   -1.1377    0.4777 C   0  0  0  0  0  0  0  0  0  0  0  0
    1.6885   -0.3252   -0.6115 C   0  0  0  0  0  0  0  0  0  0  0  0
    1.7482   -0.2010    0.7823 C   0  0  0  0  0  0  0  0  0  0  0  0
    2.9367    0.1651    1.4205 C   0  0  0  0  0  0  0  0  0  0  0  0
    4.0781    0.4327    0.6689 C   0  0  0  0  0  0  0  0  0  0  0  0
    4.0273    0.3464   -0.7200 C   0  0  0  0  0  0  0  0  0  0  0  0
    2.8368   -0.0192   -1.3548 C   0  0  0  0  0  0  0  0  0  0  0  0
    0.6422   -0.9451   -2.2495 H   0  0  0  0  0  0  0  0  0  0  0  0
   -0.3896   -2.0349   -0.0978 H   0  0  0  0  0  0  0  0  0  0  0  0
   -1.1778    1.3636   -1.2198 H   0  0  0  0  0  0  0  0  0  0  0  0
   -3.2207    2.5644   -0.5354 H   0  0  0  0  0  0  0  0  0  0  0  0
   -4.9621    1.4051    0.8030 H   0  0  0  0  0  0  0  0  0  0  0  0
   -4.6492   -0.9745    1.4364 H   0  0  0  0  0  0  0  0  0  0  0  0
   -2.6125   -2.1833    0.7514 H   0  0  0  0  0  0  0  0  0  0  0  0
    0.8619   -0.3756    1.3859 H   0  0  0  0  0  0  0  0  0  0  0  0
    2.9641    0.2517    2.5033 H   0  0  0  0  0  0  0  0  0  0  0  0
    5.0012    0.7216    1.1643 H   0  0  0  0  0  0  0  0  0  0  0  0
    4.9107    0.5713   -1.3115 H   0  0  0  0  0  0  0  0  0  0  0  0
    2.8142   -0.0631   -2.4404 H   0  0  0  0  0  0  0  0  0  0  0  0
  1  2  1  0
  2  3  1  0
  3  4  2  0
  4  5  1  0
  5  6  2  0
  6  7  1  0
  7  8  2  0
  1  9  1  0
  9 10  2  0
 10 11  1  0
 11 12  2  0
 12 13  1  0
 13 14  2  0
  8  3  1  0
 14  9  1  0
  1 15  1  0
  2 16  1  0
  4 17  1  0
  5 18  1  0
  6 19  1  0
  7 20  1  0
  8 21  1  0
 10 22  1  0
 11 23  1  0
 12 24  1  0
 13 25  1  0
 14 26  1  0
M  END
>  <Energy>  (3) 
46.00700081326198

>  <Real charge>  (3) 
0

>  <Mult>  (3) 
1

$$$$
