mol_605 72
     RDKit          3D

 24 26  0  0  0  0  0  0  0  0999 V2000
    1.4494    2.9844    0.2703 C   0  0  0  0  0  0  0  0  0  0  0  0
    0.1966    2.3196    0.3511 O   0  0  0  0  0  0  0  0  0  0  0  0
    0.2148    0.9448    0.1983 C   0  0  0  0  0  0  0  0  0  0  0  0
    1.3207    0.1120   -0.0286 C   0  0  0  0  0  0  0  0  0  0  0  0
    2.6293    0.4916   -0.1475 O   0  0  0  0  0  0  0  0  0  0  0  0
    3.3656   -0.6268   -0.3603 C   0  0  0  0  0  0  0  0  0  0  0  0
    2.5584   -1.7377   -0.3830 C   0  0  0  0  0  0  0  0  0  0  0  0
    1.2319   -1.2742   -0.1696 C   0  0  0  0  0  0  0  0  0  0  0  0
   -0.0296   -1.8946   -0.0829 C   0  0  0  0  0  0  0  0  0  0  0  0
   -1.1617   -1.1012    0.1429 C   0  0  0  0  0  0  0  0  0  0  0  0
   -2.4860   -1.6976    0.2399 C   0  0  0  0  0  0  0  0  0  0  0  0
   -3.5506   -0.9199    0.4557 C   0  0  0  0  0  0  0  0  0  0  0  0
   -3.4452    0.5410    0.6028 C   0  0  0  0  0  0  0  0  0  0  0  0
   -4.4449    1.2216    0.8000 O   0  0  0  0  0  0  0  0  0  0  0  0
   -2.1744    1.0837    0.5065 O   0  0  0  0  0  0  0  0  0  0  0  0
   -1.0240    0.2828    0.2776 C   0  0  0  0  0  0  0  0  0  0  0  0
    2.1221    2.6606    1.0708 H   0  0  0  0  0  0  0  0  0  0  0  0
    1.9028    2.8566   -0.7177 H   0  0  0  0  0  0  0  0  0  0  0  0
    1.2662    4.0544    0.4100 H   0  0  0  0  0  0  0  0  0  0  0  0
    4.4296   -0.4710   -0.4737 H   0  0  0  0  0  0  0  0  0  0  0  0
    2.8836   -2.7572   -0.5346 H   0  0  0  0  0  0  0  0  0  0  0  0
   -0.1112   -2.9724   -0.1909 H   0  0  0  0  0  0  0  0  0  0  0  0
   -2.5928   -2.7719    0.1353 H   0  0  0  0  0  0  0  0  0  0  0  0
   -4.5508   -1.3284    0.5336 H   0  0  0  0  0  0  0  0  0  0  0  0
  1  2  1  0
  2  3  1  0
  3  4  2  0
  4  5  1  0
  5  6  1  0
  6  7  2  0
  7  8  1  0
  8  9  2  0
  9 10  1  0
 10 11  1  0
 11 12  2  0
 12 13  1  0
 13 14  2  0
 13 15  1  0
 15 16  1  0
  8  4  1  0
 16  3  1  0
 16 10  2  0
  1 17  1  0
  1 18  1  0
  1 19  1  0
  6 20  1  0
  7 21  1  0
  9 22  1  0
 11 23  1  0
 12 24  1  0
M  END
>  <Energy>  (1) 
52.33746026055889

>  <Real charge>  (1) 
0

>  <Mult>  (1) 
1

$$$$
