mol_544 269
     RDKit          3D

 28 29  0  0  0  0  0  0  0  0999 V2000
    1.1989   -1.8884   -2.4346 O   0  0  0  0  0  0  0  0  0  0  0  0
    0.4774   -0.8805   -1.7213 C   0  0  0  0  0  0  0  0  0  0  0  0
   -0.6562   -1.5224   -0.9081 C   0  0  0  0  0  0  0  0  0  0  0  0
   -0.8038   -2.7489   -0.9133 O   0  0  0  0  0  0  0  0  0  0  0  0
   -1.6058   -0.6708   -0.1297 C   0  0  0  0  0  0  0  0  0  0  0  0
   -2.4452   -1.3021    0.8002 C   0  0  0  0  0  0  0  0  0  0  0  0
   -3.3548   -0.5576    1.5533 C   0  0  0  0  0  0  0  0  0  0  0  0
   -3.4358    0.8221    1.3804 C   0  0  0  0  0  0  0  0  0  0  0  0
   -2.6113    1.4570    0.4529 C   0  0  0  0  0  0  0  0  0  0  0  0
   -1.6999    0.7147   -0.3041 C   0  0  0  0  0  0  0  0  0  0  0  0
    1.4841   -0.1201   -0.8874 C   0  0  0  0  0  0  0  0  0  0  0  0
    2.0297   -0.6769    0.2807 C   0  0  0  0  0  0  0  0  0  0  0  0
    2.9551    0.0372    1.0438 C   0  0  0  0  0  0  0  0  0  0  0  0
    3.3574    1.3092    0.6430 C   0  0  0  0  0  0  0  0  0  0  0  0
    2.8434    1.8648   -0.5265 C   0  0  0  0  0  0  0  0  0  0  0  0
    1.9174    1.1527   -1.2911 C   0  0  0  0  0  0  0  0  0  0  0  0
    0.7186   -2.7248   -2.2684 H   0  0  0  0  0  0  0  0  0  0  0  0
    0.0180   -0.2375   -2.4800 H   0  0  0  0  0  0  0  0  0  0  0  0
   -2.3939   -2.3799    0.9454 H   0  0  0  0  0  0  0  0  0  0  0  0
   -3.9990   -1.0558    2.2738 H   0  0  0  0  0  0  0  0  0  0  0  0
   -4.1433    1.4029    1.9674 H   0  0  0  0  0  0  0  0  0  0  0  0
   -2.6788    2.5342    0.3183 H   0  0  0  0  0  0  0  0  0  0  0  0
   -1.0847    1.2479   -1.0214 H   0  0  0  0  0  0  0  0  0  0  0  0
    1.7456   -1.6784    0.5991 H   0  0  0  0  0  0  0  0  0  0  0  0
    3.3692   -0.4048    1.9465 H   0  0  0  0  0  0  0  0  0  0  0  0
    4.0827    1.8612    1.2349 H   0  0  0  0  0  0  0  0  0  0  0  0
    3.1719    2.8495   -0.8489 H   0  0  0  0  0  0  0  0  0  0  0  0
    1.5431    1.5957   -2.2115 H   0  0  0  0  0  0  0  0  0  0  0  0
  1  2  1  0
  2  3  1  0
  3  4  2  0
  3  5  1  0
  5  6  2  0
  6  7  1  0
  7  8  2  0
  8  9  1  0
  9 10  2  0
  2 11  1  0
 11 12  2  0
 12 13  1  0
 13 14  2  0
 14 15  1  0
 15 16  2  0
 10  5  1  0
 16 11  1  0
  1 17  1  0
  2 18  1  0
  6 19  1  0
  7 20  1  0
  8 21  1  0
  9 22  1  0
 10 23  1  0
 12 24  1  0
 13 25  1  0
 14 26  1  0
 15 27  1  0
 16 28  1  0
M  END
>  <Energy>  (1) 
86.78401251236

>  <Real charge>  (1) 
0

>  <Mult>  (1) 
1

$$$$
