mol_882 173
     RDKit          3D

 17 17  0  0  0  0  0  0  0  0999 V2000
    2.6172    0.3389    0.3469 C   0  0  0  0  0  0  0  0  0  0  0  0
    1.6539   -0.3077   -0.5255 N   0  0  0  0  0  0  0  0  0  0  0  0
    0.2869   -0.1816   -0.2517 C   0  0  0  0  0  0  0  0  0  0  0  0
   -0.6039   -1.0663   -0.8780 C   0  0  0  0  0  0  0  0  0  0  0  0
   -1.9865   -0.9574   -0.7005 C   0  0  0  0  0  0  0  0  0  0  0  0
   -2.5069    0.0621    0.0893 C   0  0  0  0  0  0  0  0  0  0  0  0
   -1.6442    0.9763    0.6860 C   0  0  0  0  0  0  0  0  0  0  0  0
   -0.2611    0.8618    0.5036 C   0  0  0  0  0  0  0  0  0  0  0  0
    3.6280    0.0533    0.0384 H   0  0  0  0  0  0  0  0  0  0  0  0
    2.4851    0.0277    1.3884 H   0  0  0  0  0  0  0  0  0  0  0  0
    2.5535    1.4293    0.2751 H   0  0  0  0  0  0  0  0  0  0  0  0
    1.9028   -1.2699   -0.7414 H   0  0  0  0  0  0  0  0  0  0  0  0
   -0.2225   -1.8566   -1.5198 H   0  0  0  0  0  0  0  0  0  0  0  0
   -2.6526   -1.6634   -1.1888 H   0  0  0  0  0  0  0  0  0  0  0  0
   -3.5807    0.1537    0.2266 H   0  0  0  0  0  0  0  0  0  0  0  0
   -2.0440    1.7889    1.2866 H   0  0  0  0  0  0  0  0  0  0  0  0
    0.3748    1.6108    0.9646 H   0  0  0  0  0  0  0  0  0  0  0  0
  1  2  1  0
  2  3  1  0
  3  4  2  0
  4  5  1  0
  5  6  2  0
  6  7  1  0
  7  8  2  0
  8  3  1  0
  1  9  1  0
  1 10  1  0
  1 11  1  0
  2 12  1  0
  4 13  1  0
  5 14  1  0
  6 15  1  0
  7 16  1  0
  8 17  1  0
M  END
>  <Energy>  (1) 
10.362134468153746

>  <Real charge>  (1) 
0

>  <Mult>  (1) 
1

$$$$
