mol_901 454
     RDKit          3D

 32 32  0  0  0  0  0  0  0  0999 V2000
    3.4182    0.7187    0.8571 C   0  0  0  0  0  0  0  0  0  0  0  0
    1.9233    0.9123    0.6327 C   0  0  0  0  0  0  0  0  0  0  0  0
    1.2699   -0.2022   -0.2279 C   0  0  0  0  0  0  0  0  0  0  0  0
    1.8718   -0.2129   -1.6434 C   0  0  0  0  0  0  0  0  0  0  0  0
   -0.3118   -0.1253   -0.1949 C   0  0  0  0  0  0  0  0  0  0  0  0
   -0.9516   -1.2033   -1.1238 C   0  0  0  0  0  0  0  0  0  0  0  0
   -2.4352   -1.4598   -0.9382 C   0  0  0  0  0  0  0  0  0  0  0  0
   -3.6009   -0.2771   -1.7992 Br  0  0  0  0  0  0  0  0  0  0  0  0
   -2.9140   -2.5092   -0.2552 C   0  0  0  0  0  0  0  0  0  0  0  0
   -0.7423   -0.4563    1.2292 C   0  0  0  0  0  0  0  0  0  0  0  0
   -0.4121   -1.4972    1.7983 O   0  0  0  0  0  0  0  0  0  0  0  0
   -1.5269    0.4486    1.8802 N   0  0  0  0  0  0  0  0  0  0  0  0
   -1.8170    1.7073    1.4658 C   0  0  0  0  0  0  0  0  0  0  0  0
   -2.4655    2.4797    2.1630 O   0  0  0  0  0  0  0  0  0  0  0  0
   -1.3520    2.0696    0.2440 N   0  0  0  0  0  0  0  0  0  0  0  0
   -0.7590    1.2483   -0.6691 C   0  0  0  0  0  0  0  0  0  0  0  0
   -0.5934    1.6462   -1.8214 O   0  0  0  0  0  0  0  0  0  0  0  0
    3.7884    1.4648    1.5679 H   0  0  0  0  0  0  0  0  0  0  0  0
    3.6295   -0.2733    1.2682 H   0  0  0  0  0  0  0  0  0  0  0  0
    3.9855    0.8417   -0.0696 H   0  0  0  0  0  0  0  0  0  0  0  0
    1.7645    1.8930    0.1691 H   0  0  0  0  0  0  0  0  0  0  0  0
    1.4483    0.9479    1.6194 H   0  0  0  0  0  0  0  0  0  0  0  0
    1.5577   -1.1626    0.2241 H   0  0  0  0  0  0  0  0  0  0  0  0
    1.4341   -0.9956   -2.2684 H   0  0  0  0  0  0  0  0  0  0  0  0
    1.7433    0.7480   -2.1493 H   0  0  0  0  0  0  0  0  0  0  0  0
    2.9456   -0.4231   -1.6088 H   0  0  0  0  0  0  0  0  0  0  0  0
   -0.4214   -2.1541   -0.9666 H   0  0  0  0  0  0  0  0  0  0  0  0
   -0.7820   -0.9545   -2.1797 H   0  0  0  0  0  0  0  0  0  0  0  0
   -2.2504   -3.2190    0.2310 H   0  0  0  0  0  0  0  0  0  0  0  0
   -3.9803   -2.6916   -0.1595 H   0  0  0  0  0  0  0  0  0  0  0  0
   -1.8197    0.2068    2.8167 H   0  0  0  0  0  0  0  0  0  0  0  0
   -1.6446    2.9771   -0.0916 H   0  0  0  0  0  0  0  0  0  0  0  0
  1  2  1  0
  2  3  1  0
  3  4  1  0
  3  5  1  0
  5  6  1  0
  6  7  1  0
  7  8  1  0
  7  9  2  3
  5 10  1  0
 10 11  2  0
 10 12  1  0
 12 13  1  0
 13 14  2  0
 13 15  1  0
 15 16  1  0
 16 17  2  0
 16  5  1  0
  1 18  1  0
  1 19  1  0
  1 20  1  0
  2 21  1  0
  2 22  1  0
  3 23  1  0
  4 24  1  0
  4 25  1  0
  4 26  1  0
  6 27  1  0
  6 28  1  0
  9 29  1  0
  9 30  1  0
 12 31  1  0
 15 32  1  0
M  END
>  <Energy>  (1) 
-124.79594435939957

>  <Real charge>  (1) 
0

>  <Mult>  (1) 
1

$$$$
mol_901 470
     RDKit          3D

 32 32  0  0  0  0  0  0  0  0999 V2000
   -2.9163   -2.2531   -0.0999 C   0  0  0  0  0  0  0  0  0  0  0  0
   -1.6710   -1.5315   -0.6047 C   0  0  0  0  0  0  0  0  0  0  0  0
   -1.0876   -0.5120    0.4057 C   0  0  0  0  0  0  0  0  0  0  0  0
   -2.1288    0.5720    0.7465 C   0  0  0  0  0  0  0  0  0  0  0  0
    0.2995    0.1182   -0.0293 C   0  0  0  0  0  0  0  0  0  0  0  0
    1.3209   -0.9859   -0.4437 C   0  0  0  0  0  0  0  0  0  0  0  0
    2.7717   -0.5559   -0.5545 C   0  0  0  0  0  0  0  0  0  0  0  0
    3.2747    0.2864   -2.1470 Br  0  0  0  0  0  0  0  0  0  0  0  0
    3.6826   -0.8120    0.3951 C   0  0  0  0  0  0  0  0  0  0  0  0
    0.0791    1.0466   -1.2135 C   0  0  0  0  0  0  0  0  0  0  0  0
   -0.2391    0.6445   -2.3317 O   0  0  0  0  0  0  0  0  0  0  0  0
    0.2194    2.3861   -0.9987 N   0  0  0  0  0  0  0  0  0  0  0  0
    0.8276    2.9628    0.0678 C   0  0  0  0  0  0  0  0  0  0  0  0
    1.0734    4.1637    0.0973 O   0  0  0  0  0  0  0  0  0  0  0  0
    1.1545    2.1448    1.0996 N   0  0  0  0  0  0  0  0  0  0  0  0
    0.8729    0.8146    1.1994 C   0  0  0  0  0  0  0  0  0  0  0  0
    1.0810    0.2256    2.2606 O   0  0  0  0  0  0  0  0  0  0  0  0
   -3.1975   -3.0464   -0.8004 H   0  0  0  0  0  0  0  0  0  0  0  0
   -3.7701   -1.5746   -0.0166 H   0  0  0  0  0  0  0  0  0  0  0  0
   -2.7369   -2.7129    0.8769 H   0  0  0  0  0  0  0  0  0  0  0  0
   -0.9271   -2.3025   -0.8285 H   0  0  0  0  0  0  0  0  0  0  0  0
   -1.9198   -1.0394   -1.5505 H   0  0  0  0  0  0  0  0  0  0  0  0
   -0.9118   -1.0709    1.3365 H   0  0  0  0  0  0  0  0  0  0  0  0
   -1.7222    1.3269    1.4260 H   0  0  0  0  0  0  0  0  0  0  0  0
   -2.4880    1.0805   -0.1541 H   0  0  0  0  0  0  0  0  0  0  0  0
   -2.9964    0.1375    1.2529 H   0  0  0  0  0  0  0  0  0  0  0  0
    1.0313   -1.4433   -1.3990 H   0  0  0  0  0  0  0  0  0  0  0  0
    1.2649   -1.8021    0.2915 H   0  0  0  0  0  0  0  0  0  0  0  0
    3.4122   -1.3201    1.3167 H   0  0  0  0  0  0  0  0  0  0  0  0
    4.7230   -0.5215    0.2836 H   0  0  0  0  0  0  0  0  0  0  0  0
    0.0709    2.9851   -1.7995 H   0  0  0  0  0  0  0  0  0  0  0  0
    1.5529    2.5888    1.9153 H   0  0  0  0  0  0  0  0  0  0  0  0
  1  2  1  0
  2  3  1  0
  3  4  1  0
  3  5  1  0
  5  6  1  0
  6  7  1  0
  7  8  1  0
  7  9  2  3
  5 10  1  0
 10 11  2  0
 10 12  1  0
 12 13  1  0
 13 14  2  0
 13 15  1  0
 15 16  1  0
 16 17  2  0
 16  5  1  0
  1 18  1  0
  1 19  1  0
  1 20  1  0
  2 21  1  0
  2 22  1  0
  3 23  1  0
  4 24  1  0
  4 25  1  0
  4 26  1  0
  6 27  1  0
  6 28  1  0
  9 29  1  0
  9 30  1  0
 12 31  1  0
 15 32  1  0
M  END
>  <Energy>  (2) 
-124.66987690825472

>  <Real charge>  (2) 
0

>  <Mult>  (2) 
1

$$$$
mol_901 505
     RDKit          3D

 32 32  0  0  0  0  0  0  0  0999 V2000
    3.5931   -0.1118   -0.5522 C   0  0  0  0  0  0  0  0  0  0  0  0
    2.2050    0.3315   -0.1056 C   0  0  0  0  0  0  0  0  0  0  0  0
    1.0992   -0.7318   -0.3475 C   0  0  0  0  0  0  0  0  0  0  0  0
    1.3657   -1.9845    0.5039 C   0  0  0  0  0  0  0  0  0  0  0  0
   -0.3514   -0.1196   -0.1745 C   0  0  0  0  0  0  0  0  0  0  0  0
   -1.4582   -1.2069   -0.3319 C   0  0  0  0  0  0  0  0  0  0  0  0
   -2.8930   -0.7206   -0.2510 C   0  0  0  0  0  0  0  0  0  0  0  0
   -3.7168   -0.3001   -1.8791 Br  0  0  0  0  0  0  0  0  0  0  0  0
   -3.5886   -0.6702    0.8938 C   0  0  0  0  0  0  0  0  0  0  0  0
   -0.5446    0.8886   -1.3018 C   0  0  0  0  0  0  0  0  0  0  0  0
   -0.3033    0.6284   -2.4800 O   0  0  0  0  0  0  0  0  0  0  0  0
   -1.0124    2.1238   -0.9634 N   0  0  0  0  0  0  0  0  0  0  0  0
   -0.9524    2.6728    0.2754 C   0  0  0  0  0  0  0  0  0  0  0  0
   -1.2154    3.8543    0.4709 O   0  0  0  0  0  0  0  0  0  0  0  0
   -0.5810    1.8514    1.2900 N   0  0  0  0  0  0  0  0  0  0  0  0
   -0.4872    0.4932    1.2121 C   0  0  0  0  0  0  0  0  0  0  0  0
   -0.5110   -0.1766    2.2439 O   0  0  0  0  0  0  0  0  0  0  0  0
    3.9793   -0.9235    0.0704 H   0  0  0  0  0  0  0  0  0  0  0  0
    4.2956    0.7242   -0.4704 H   0  0  0  0  0  0  0  0  0  0  0  0
    3.5840   -0.4440   -1.5949 H   0  0  0  0  0  0  0  0  0  0  0  0
    1.9665    1.2500   -0.6531 H   0  0  0  0  0  0  0  0  0  0  0  0
    2.2484    0.5988    0.9568 H   0  0  0  0  0  0  0  0  0  0  0  0
    1.1931   -1.0599   -1.3927 H   0  0  0  0  0  0  0  0  0  0  0  0
    0.6364   -2.7743    0.3054 H   0  0  0  0  0  0  0  0  0  0  0  0
    1.3559   -1.7611    1.5742 H   0  0  0  0  0  0  0  0  0  0  0  0
    2.3426   -2.4185    0.2691 H   0  0  0  0  0  0  0  0  0  0  0  0
   -1.3417   -1.9652    0.4537 H   0  0  0  0  0  0  0  0  0  0  0  0
   -1.3102   -1.7506   -1.2751 H   0  0  0  0  0  0  0  0  0  0  0  0
   -3.1430   -0.9559    1.8428 H   0  0  0  0  0  0  0  0  0  0  0  0
   -4.6279   -0.3555    0.9175 H   0  0  0  0  0  0  0  0  0  0  0  0
   -1.1647    2.7706   -1.7253 H   0  0  0  0  0  0  0  0  0  0  0  0
   -0.6621    2.2429    2.2185 H   0  0  0  0  0  0  0  0  0  0  0  0
  1  2  1  0
  2  3  1  0
  3  4  1  0
  3  5  1  0
  5  6  1  0
  6  7  1  0
  7  8  1  0
  7  9  2  3
  5 10  1  0
 10 11  2  0
 10 12  1  0
 12 13  1  0
 13 14  2  0
 13 15  1  0
 15 16  1  0
 16 17  2  0
 16  5  1  0
  1 18  1  0
  1 19  1  0
  1 20  1  0
  2 21  1  0
  2 22  1  0
  3 23  1  0
  4 24  1  0
  4 25  1  0
  4 26  1  0
  6 27  1  0
  6 28  1  0
  9 29  1  0
  9 30  1  0
 12 31  1  0
 15 32  1  0
M  END
>  <Energy>  (3) 
-124.35673721409833

>  <Real charge>  (3) 
0

>  <Mult>  (3) 
1

$$$$
mol_901 281
     RDKit          3D

 32 32  0  0  0  0  0  0  0  0999 V2000
   -3.1462   -1.8816   -0.4004 C   0  0  0  0  0  0  0  0  0  0  0  0
   -1.6973   -1.5687   -0.0407 C   0  0  0  0  0  0  0  0  0  0  0  0
   -1.2407   -0.1461   -0.4506 C   0  0  0  0  0  0  0  0  0  0  0  0
   -2.1576    0.9226    0.1767 C   0  0  0  0  0  0  0  0  0  0  0  0
    0.2885    0.1609   -0.1720 C   0  0  0  0  0  0  0  0  0  0  0  0
    1.2152   -0.9630   -0.7282 C   0  0  0  0  0  0  0  0  0  0  0  0
    2.7080   -0.7370   -0.5779 C   0  0  0  0  0  0  0  0  0  0  0  0
    3.5740    0.0661   -2.0309 Br  0  0  0  0  0  0  0  0  0  0  0  0
    3.4124   -1.1587    0.4819 C   0  0  0  0  0  0  0  0  0  0  0  0
    0.5230    0.2679    1.3285 C   0  0  0  0  0  0  0  0  0  0  0  0
    0.4763   -0.6988    2.0881 O   0  0  0  0  0  0  0  0  0  0  0  0
    0.7858    1.5071    1.8331 N   0  0  0  0  0  0  0  0  0  0  0  0
    1.2741    2.5529    1.1191 C   0  0  0  0  0  0  0  0  0  0  0  0
    1.7053    3.5596    1.6704 O   0  0  0  0  0  0  0  0  0  0  0  0
    1.2592    2.4297   -0.2315 N   0  0  0  0  0  0  0  0  0  0  0  0
    0.6271    1.4418   -0.9270 C   0  0  0  0  0  0  0  0  0  0  0  0
    0.3571    1.6082   -2.1159 O   0  0  0  0  0  0  0  0  0  0  0  0
   -3.8467   -1.2969    0.2028 H   0  0  0  0  0  0  0  0  0  0  0  0
   -3.3575   -2.9393   -0.2113 H   0  0  0  0  0  0  0  0  0  0  0  0
   -3.3418   -1.6818   -1.4585 H   0  0  0  0  0  0  0  0  0  0  0  0
   -1.0799   -2.3159   -0.5491 H   0  0  0  0  0  0  0  0  0  0  0  0
   -1.5699   -1.7209    1.0358 H   0  0  0  0  0  0  0  0  0  0  0  0
   -1.3937   -0.0827   -1.5378 H   0  0  0  0  0  0  0  0  0  0  0  0
   -2.2065    0.8190    1.2656 H   0  0  0  0  0  0  0  0  0  0  0  0
   -1.8188    1.9370   -0.0547 H   0  0  0  0  0  0  0  0  0  0  0  0
   -3.1774    0.8425   -0.2132 H   0  0  0  0  0  0  0  0  0  0  0  0
    0.9907   -1.9094   -0.2184 H   0  0  0  0  0  0  0  0  0  0  0  0
    0.9790   -1.1470   -1.7854 H   0  0  0  0  0  0  0  0  0  0  0  0
    4.4876   -1.0189    0.5457 H   0  0  0  0  0  0  0  0  0  0  0  0
    2.9362   -1.6699    1.3142 H   0  0  0  0  0  0  0  0  0  0  0  0
    0.9291    1.5615    2.8324 H   0  0  0  0  0  0  0  0  0  0  0  0
    1.5054    3.2599   -0.7533 H   0  0  0  0  0  0  0  0  0  0  0  0
  1  2  1  0
  2  3  1  0
  3  4  1  0
  3  5  1  0
  5  6  1  0
  6  7  1  0
  7  8  1  0
  7  9  2  3
  5 10  1  0
 10 11  2  0
 10 12  1  0
 12 13  1  0
 13 14  2  0
 13 15  1  0
 15 16  1  0
 16 17  2  0
 16  5  1  0
  1 18  1  0
  1 19  1  0
  1 20  1  0
  2 21  1  0
  2 22  1  0
  3 23  1  0
  4 24  1  0
  4 25  1  0
  4 26  1  0
  6 27  1  0
  6 28  1  0
  9 29  1  0
  9 30  1  0
 12 31  1  0
 15 32  1  0
M  END
>  <Energy>  (4) 
-124.2251757728043

>  <Real charge>  (4) 
0

>  <Mult>  (4) 
1

$$$$
