mol_900 60
     RDKit          3D

 22 24  0  0  0  0  0  0  0  0999 V2000
   -2.9214    1.8208   -1.0240 Cl  0  0  0  0  0  0  0  0  0  0  0  0
   -1.4128    1.4306   -0.1643 C   0  0  0  0  0  0  0  0  0  0  0  0
   -1.7604    0.9167    1.1980 C   0  0  0  0  0  0  0  0  0  0  0  0
   -1.3952   -0.3544    1.4019 C   0  0  0  0  0  0  0  0  0  0  0  0
   -0.7173   -0.9415    0.2038 C   0  0  0  0  0  0  0  0  0  0  0  0
   -0.6936    0.2457   -0.8258 C   0  0  0  0  0  0  0  0  0  0  0  0
    0.8363    0.3974   -1.1052 C   0  0  0  0  0  0  0  0  0  0  0  0
    1.1835    1.3308   -2.5509 Cl  0  0  0  0  0  0  0  0  0  0  0  0
    1.5366    0.8460    0.1644 C   0  0  0  0  0  0  0  0  0  0  0  0
    1.5191   -0.1850    1.0172 C   0  0  0  0  0  0  0  0  0  0  0  0
    2.0988   -0.2318    2.6070 Cl  0  0  0  0  0  0  0  0  0  0  0  0
    0.7978   -1.3276    0.3277 C   0  0  0  0  0  0  0  0  0  0  0  0
    1.0622   -2.9315    0.9889 Cl  0  0  0  0  0  0  0  0  0  0  0  0
    1.3054   -1.0980   -1.1311 C   0  0  0  0  0  0  0  0  0  0  0  0
    0.5070   -2.1253   -2.3744 Cl  0  0  0  0  0  0  0  0  0  0  0  0
    3.0831   -1.3290   -1.3597 Cl  0  0  0  0  0  0  0  0  0  0  0  0
    2.1555    2.4000    0.4263 Cl  0  0  0  0  0  0  0  0  0  0  0  0
   -0.8136    2.3422   -0.1219 H   0  0  0  0  0  0  0  0  0  0  0  0
   -2.2695    1.5250    1.9364 H   0  0  0  0  0  0  0  0  0  0  0  0
   -1.5731   -0.9021    2.3203 H   0  0  0  0  0  0  0  0  0  0  0  0
   -1.3208   -1.7698   -0.1875 H   0  0  0  0  0  0  0  0  0  0  0  0
   -1.2077   -0.0591   -1.7472 H   0  0  0  0  0  0  0  0  0  0  0  0
  1  2  1  0
  2  3  1  0
  3  4  2  0
  4  5  1  0
  5  6  1  0
  6  7  1  0
  7  8  1  0
  7  9  1  0
  9 10  2  0
 10 11  1  0
 10 12  1  0
 12 13  1  0
 12 14  1  0
 14 15  1  0
 14 16  1  0
  9 17  1  0
  6  2  1  0
 12  5  1  0
 14  7  1  0
  2 18  1  0
  3 19  1  0
  4 20  1  0
  5 21  1  0
  6 22  1  0
M  END
>  <Energy>  (1) 
81.46250235337666

>  <Real charge>  (1) 
0

>  <Mult>  (1) 
1

$$$$
