mol_586 36
     RDKit          3D

 16 16  0  0  0  0  0  0  0  0999 V2000
   -1.2375   -1.8036    0.2544 N   0  0  0  0  0  0  0  0  0  0  0  0
   -0.1655   -0.9558    0.1543 C   0  0  0  0  0  0  0  0  0  0  0  0
   -0.3623    0.5149   -0.0168 C   0  0  0  0  0  0  0  0  0  0  0  0
   -1.7333    1.0978   -0.0483 C   0  0  0  0  0  0  0  0  0  0  0  0
    0.7668    1.2228   -0.1094 C   0  0  0  0  0  0  0  0  0  0  0  0
    1.9763    0.6016   -0.0492 N   0  0  0  0  0  0  0  0  0  0  0  0
    2.1315   -0.7525    0.1142 C   0  0  0  0  0  0  0  0  0  0  0  0
    3.2663   -1.2192    0.1595 O   0  0  0  0  0  0  0  0  0  0  0  0
    1.0029   -1.5231    0.2121 N   0  0  0  0  0  0  0  0  0  0  0  0
   -2.0399   -1.5864   -0.3223 H   0  0  0  0  0  0  0  0  0  0  0  0
   -0.9460   -2.7729    0.1617 H   0  0  0  0  0  0  0  0  0  0  0  0
   -2.2818    0.8439    0.8644 H   0  0  0  0  0  0  0  0  0  0  0  0
   -2.2927    0.7194   -0.9098 H   0  0  0  0  0  0  0  0  0  0  0  0
   -1.7068    2.1901   -0.1246 H   0  0  0  0  0  0  0  0  0  0  0  0
    0.7810    2.3009   -0.2283 H   0  0  0  0  0  0  0  0  0  0  0  0
    2.8408    1.1223   -0.1119 H   0  0  0  0  0  0  0  0  0  0  0  0
  1  2  1  0
  2  3  1  0
  3  4  1  0
  3  5  2  0
  5  6  1  0
  6  7  1  0
  7  8  2  0
  7  9  1  0
  9  2  2  0
  1 10  1  0
  1 11  1  0
  4 12  1  0
  4 13  1  0
  4 14  1  0
  5 15  1  0
  6 16  1  0
M  END
>  <Energy>  (1) 
-85.7439536410093

>  <Real charge>  (1) 
0

>  <Mult>  (1) 
1

$$$$
