mol_608 283
     RDKit          3D

 41 42  0  0  0  0  0  0  0  0999 V2000
   -4.7782    1.6931    0.1962 C   0  0  0  0  0  0  0  0  0  0  0  0
   -3.9717    0.4130    0.3553 C   0  0  0  0  0  0  0  0  0  0  0  0
   -2.5518    0.6256    0.0682 N   0  0  0  0  0  0  0  0  0  0  0  0
   -1.6929    0.9950    1.1971 C   0  0  0  0  0  0  0  0  0  0  0  0
   -1.3212   -0.2042    2.0562 C   0  0  0  0  0  0  0  0  0  0  0  0
   -2.1308    0.5120   -1.2611 C   0  0  0  0  0  0  0  0  0  0  0  0
   -2.9383    0.2482   -2.1587 O   0  0  0  0  0  0  0  0  0  0  0  0
   -0.6421    0.7838   -1.5902 C   0  0  0  0  0  0  0  0  0  0  0  0
   -0.4105    0.6879   -3.0992 C   0  0  0  0  0  0  0  0  0  0  0  0
    0.1574   -0.1965   -0.9302 O   0  0  0  0  0  0  0  0  0  0  0  0
    1.4792    0.0544   -0.6517 C   0  0  0  0  0  0  0  0  0  0  0  0
    2.1192    1.2762   -0.8823 C   0  0  0  0  0  0  0  0  0  0  0  0
    3.4613    1.4451   -0.5447 C   0  0  0  0  0  0  0  0  0  0  0  0
    4.1774    0.3967    0.0267 C   0  0  0  0  0  0  0  0  0  0  0  0
    3.5651   -0.8405    0.2649 C   0  0  0  0  0  0  0  0  0  0  0  0
    4.2934   -1.8970    0.8377 C   0  0  0  0  0  0  0  0  0  0  0  0
    3.6958   -3.1345    1.0742 C   0  0  0  0  0  0  0  0  0  0  0  0
    2.3626   -3.3326    0.7389 C   0  0  0  0  0  0  0  0  0  0  0  0
    1.6269   -2.2913    0.1696 C   0  0  0  0  0  0  0  0  0  0  0  0
    2.2027   -1.0249   -0.0773 C   0  0  0  0  0  0  0  0  0  0  0  0
   -4.7023    2.0850   -0.8232 H   0  0  0  0  0  0  0  0  0  0  0  0
   -5.8344    1.5056    0.4125 H   0  0  0  0  0  0  0  0  0  0  0  0
   -4.4224    2.4709    0.8794 H   0  0  0  0  0  0  0  0  0  0  0  0
   -4.3705   -0.3508   -0.3218 H   0  0  0  0  0  0  0  0  0  0  0  0
   -4.0813    0.0238    1.3726 H   0  0  0  0  0  0  0  0  0  0  0  0
   -2.2265    1.7361    1.8028 H   0  0  0  0  0  0  0  0  0  0  0  0
   -0.7825    1.4843    0.8476 H   0  0  0  0  0  0  0  0  0  0  0  0
   -0.6171    0.0942    2.8390 H   0  0  0  0  0  0  0  0  0  0  0  0
   -0.8601   -0.9956    1.4601 H   0  0  0  0  0  0  0  0  0  0  0  0
   -2.2021   -0.6329    2.5438 H   0  0  0  0  0  0  0  0  0  0  0  0
   -0.4401    1.8048   -1.2494 H   0  0  0  0  0  0  0  0  0  0  0  0
   -0.6220   -0.3242   -3.4632 H   0  0  0  0  0  0  0  0  0  0  0  0
   -1.0489    1.3903   -3.6448 H   0  0  0  0  0  0  0  0  0  0  0  0
    0.6310    0.9022   -3.3579 H   0  0  0  0  0  0  0  0  0  0  0  0
    1.6108    2.1231   -1.3281 H   0  0  0  0  0  0  0  0  0  0  0  0
    3.9520    2.3977   -0.7289 H   0  0  0  0  0  0  0  0  0  0  0  0
    5.2235    0.5523    0.2817 H   0  0  0  0  0  0  0  0  0  0  0  0
    5.3398   -1.7632    1.1036 H   0  0  0  0  0  0  0  0  0  0  0  0
    4.2729   -3.9424    1.5161 H   0  0  0  0  0  0  0  0  0  0  0  0
    1.8910   -4.2956    0.9154 H   0  0  0  0  0  0  0  0  0  0  0  0
    0.5856   -2.4752   -0.0895 H   0  0  0  0  0  0  0  0  0  0  0  0
  1  2  1  0
  2  3  1  0
  3  4  1  0
  4  5  1  0
  3  6  1  0
  6  7  2  0
  6  8  1  0
  8  9  1  0
  8 10  1  0
 10 11  1  0
 11 12  2  0
 12 13  1  0
 13 14  2  0
 14 15  1  0
 15 16  2  0
 16 17  1  0
 17 18  2  0
 18 19  1  0
 19 20  2  0
 20 11  1  0
 20 15  1  0
  1 21  1  0
  1 22  1  0
  1 23  1  0
  2 24  1  0
  2 25  1  0
  4 26  1  0
  4 27  1  0
  5 28  1  0
  5 29  1  0
  5 30  1  0
  8 31  1  0
  9 32  1  0
  9 33  1  0
  9 34  1  0
 12 35  1  0
 13 36  1  0
 14 37  1  0
 16 38  1  0
 17 39  1  0
 18 40  1  0
 19 41  1  0
M  END
>  <Energy>  (1) 
60.4196853540033

>  <Real charge>  (1) 
0

>  <Mult>  (1) 
1

$$$$
mol_608 222
     RDKit          3D

 41 42  0  0  0  0  0  0  0  0999 V2000
    4.7091   -0.9102   -0.7582 C   0  0  0  0  0  0  0  0  0  0  0  0
    3.3907   -0.4496   -1.3615 C   0  0  0  0  0  0  0  0  0  0  0  0
    2.3242   -0.4082   -0.3579 N   0  0  0  0  0  0  0  0  0  0  0  0
    2.0995    0.8792    0.3064 C   0  0  0  0  0  0  0  0  0  0  0  0
    1.3241    1.8543   -0.5682 C   0  0  0  0  0  0  0  0  0  0  0  0
    1.6104   -1.5815   -0.1281 C   0  0  0  0  0  0  0  0  0  0  0  0
    1.8459   -2.6086   -0.7789 O   0  0  0  0  0  0  0  0  0  0  0  0
    0.5476   -1.6608    0.9953 C   0  0  0  0  0  0  0  0  0  0  0  0
    1.2559   -1.8072    2.3435 C   0  0  0  0  0  0  0  0  0  0  0  0
   -0.3775   -0.5902    1.0979 O   0  0  0  0  0  0  0  0  0  0  0  0
   -1.4349   -0.5301    0.2216 C   0  0  0  0  0  0  0  0  0  0  0  0
   -1.5887   -1.3663   -0.8890 C   0  0  0  0  0  0  0  0  0  0  0  0
   -2.6866   -1.2183   -1.7351 C   0  0  0  0  0  0  0  0  0  0  0  0
   -3.6377   -0.2329   -1.4837 C   0  0  0  0  0  0  0  0  0  0  0  0
   -3.5064    0.6233   -0.3824 C   0  0  0  0  0  0  0  0  0  0  0  0
   -4.4656    1.6199   -0.1354 C   0  0  0  0  0  0  0  0  0  0  0  0
   -4.3428    2.4786    0.9565 C   0  0  0  0  0  0  0  0  0  0  0  0
   -3.2594    2.3518    1.8166 C   0  0  0  0  0  0  0  0  0  0  0  0
   -2.2987    1.3656    1.5837 C   0  0  0  0  0  0  0  0  0  0  0  0
   -2.3960    0.4816    0.4857 C   0  0  0  0  0  0  0  0  0  0  0  0
    4.6198   -1.9139   -0.3302 H   0  0  0  0  0  0  0  0  0  0  0  0
    5.0333   -0.2352    0.0405 H   0  0  0  0  0  0  0  0  0  0  0  0
    5.4901   -0.9334   -1.5244 H   0  0  0  0  0  0  0  0  0  0  0  0
    3.5109    0.5424   -1.8084 H   0  0  0  0  0  0  0  0  0  0  0  0
    3.1066   -1.1300   -2.1721 H   0  0  0  0  0  0  0  0  0  0  0  0
    1.5684    0.7494    1.2479 H   0  0  0  0  0  0  0  0  0  0  0  0
    3.0771    1.3039    0.5617 H   0  0  0  0  0  0  0  0  0  0  0  0
    1.8941    2.1297   -1.4609 H   0  0  0  0  0  0  0  0  0  0  0  0
    0.3767    1.4261   -0.9050 H   0  0  0  0  0  0  0  0  0  0  0  0
    1.1097    2.7725   -0.0125 H   0  0  0  0  0  0  0  0  0  0  0  0
   -0.0058   -2.5998    0.8551 H   0  0  0  0  0  0  0  0  0  0  0  0
    0.5227   -1.9737    3.1404 H   0  0  0  0  0  0  0  0  0  0  0  0
    1.9565   -2.6486    2.3323 H   0  0  0  0  0  0  0  0  0  0  0  0
    1.8159   -0.9089    2.6180 H   0  0  0  0  0  0  0  0  0  0  0  0
   -0.8716   -2.1420   -1.1377 H   0  0  0  0  0  0  0  0  0  0  0  0
   -2.7978   -1.8726   -2.5965 H   0  0  0  0  0  0  0  0  0  0  0  0
   -4.4848   -0.1367   -2.1595 H   0  0  0  0  0  0  0  0  0  0  0  0
   -5.3215    1.7350   -0.7972 H   0  0  0  0  0  0  0  0  0  0  0  0
   -5.0937    3.2438    1.1339 H   0  0  0  0  0  0  0  0  0  0  0  0
   -3.1587    3.0164    2.6704 H   0  0  0  0  0  0  0  0  0  0  0  0
   -1.4613    1.2852    2.2739 H   0  0  0  0  0  0  0  0  0  0  0  0
  1  2  1  0
  2  3  1  0
  3  4  1  0
  4  5  1  0
  3  6  1  0
  6  7  2  0
  6  8  1  0
  8  9  1  0
  8 10  1  0
 10 11  1  0
 11 12  2  0
 12 13  1  0
 13 14  2  0
 14 15  1  0
 15 16  2  0
 16 17  1  0
 17 18  2  0
 18 19  1  0
 19 20  2  0
 20 11  1  0
 20 15  1  0
  1 21  1  0
  1 22  1  0
  1 23  1  0
  2 24  1  0
  2 25  1  0
  4 26  1  0
  4 27  1  0
  5 28  1  0
  5 29  1  0
  5 30  1  0
  8 31  1  0
  9 32  1  0
  9 33  1  0
  9 34  1  0
 12 35  1  0
 13 36  1  0
 14 37  1  0
 16 38  1  0
 17 39  1  0
 18 40  1  0
 19 41  1  0
M  END
>  <Energy>  (2) 
60.60014602703017

>  <Real charge>  (2) 
0

>  <Mult>  (2) 
1

$$$$
mol_608 374
     RDKit          3D

 41 42  0  0  0  0  0  0  0  0999 V2000
    1.8000    0.1311   -2.7831 C   0  0  0  0  0  0  0  0  0  0  0  0
    1.7312    0.4396   -1.2953 C   0  0  0  0  0  0  0  0  0  0  0  0
    2.4149   -0.5808   -0.4982 N   0  0  0  0  0  0  0  0  0  0  0  0
    3.8515   -0.3989   -0.2874 C   0  0  0  0  0  0  0  0  0  0  0  0
    4.1370    0.3806    0.9870 C   0  0  0  0  0  0  0  0  0  0  0  0
    1.8025   -1.6967    0.0799 C   0  0  0  0  0  0  0  0  0  0  0  0
    2.4651   -2.5228    0.7166 O   0  0  0  0  0  0  0  0  0  0  0  0
    0.2787   -1.8813   -0.1134 C   0  0  0  0  0  0  0  0  0  0  0  0
   -0.1400   -3.2800    0.3407 C   0  0  0  0  0  0  0  0  0  0  0  0
   -0.3768   -0.9121    0.7070 O   0  0  0  0  0  0  0  0  0  0  0  0
   -1.5818   -0.3831    0.3128 C   0  0  0  0  0  0  0  0  0  0  0  0
   -2.3792   -0.9118   -0.7066 C   0  0  0  0  0  0  0  0  0  0  0  0
   -3.5874   -0.3035   -1.0432 C   0  0  0  0  0  0  0  0  0  0  0  0
   -4.0112    0.8357   -0.3634 C   0  0  0  0  0  0  0  0  0  0  0  0
   -3.2364    1.3830    0.6681 C   0  0  0  0  0  0  0  0  0  0  0  0
   -3.6687    2.5306    1.3541 C   0  0  0  0  0  0  0  0  0  0  0  0
   -2.9044    3.0818    2.3822 C   0  0  0  0  0  0  0  0  0  0  0  0
   -1.6978    2.4926    2.7384 C   0  0  0  0  0  0  0  0  0  0  0  0
   -1.2556    1.3521    2.0652 C   0  0  0  0  0  0  0  0  0  0  0  0
   -2.0080    0.7717    1.0199 C   0  0  0  0  0  0  0  0  0  0  0  0
    1.3412   -0.8364   -3.0098 H   0  0  0  0  0  0  0  0  0  0  0  0
    2.8368    0.0962   -3.1327 H   0  0  0  0  0  0  0  0  0  0  0  0
    1.2742    0.9019   -3.3550 H   0  0  0  0  0  0  0  0  0  0  0  0
    0.6870    0.5245   -0.9986 H   0  0  0  0  0  0  0  0  0  0  0  0
    2.1939    1.4113   -1.0895 H   0  0  0  0  0  0  0  0  0  0  0  0
    4.3418   -1.3771   -0.2295 H   0  0  0  0  0  0  0  0  0  0  0  0
    4.2778    0.1196   -1.1532 H   0  0  0  0  0  0  0  0  0  0  0  0
    3.7379   -0.1379    1.8649 H   0  0  0  0  0  0  0  0  0  0  0  0
    3.6805    1.3750    0.9516 H   0  0  0  0  0  0  0  0  0  0  0  0
    5.2157    0.5041    1.1234 H   0  0  0  0  0  0  0  0  0  0  0  0
    0.0694   -1.7532   -1.1806 H   0  0  0  0  0  0  0  0  0  0  0  0
    0.0612   -3.4230    1.4087 H   0  0  0  0  0  0  0  0  0  0  0  0
    0.3967   -4.0540   -0.2173 H   0  0  0  0  0  0  0  0  0  0  0  0
   -1.2136   -3.4403    0.2047 H   0  0  0  0  0  0  0  0  0  0  0  0
   -2.1002   -1.8055   -1.2532 H   0  0  0  0  0  0  0  0  0  0  0  0
   -4.2043   -0.7218   -1.8347 H   0  0  0  0  0  0  0  0  0  0  0  0
   -4.9585    1.2923   -0.6426 H   0  0  0  0  0  0  0  0  0  0  0  0
   -4.6115    3.0058    1.0918 H   0  0  0  0  0  0  0  0  0  0  0  0
   -3.2533    3.9685    2.9047 H   0  0  0  0  0  0  0  0  0  0  0  0
   -1.0983    2.9146    3.5406 H   0  0  0  0  0  0  0  0  0  0  0  0
   -0.3081    0.9075    2.3656 H   0  0  0  0  0  0  0  0  0  0  0  0
  1  2  1  0
  2  3  1  0
  3  4  1  0
  4  5  1  0
  3  6  1  0
  6  7  2  0
  6  8  1  0
  8  9  1  0
  8 10  1  0
 10 11  1  0
 11 12  2  0
 12 13  1  0
 13 14  2  0
 14 15  1  0
 15 16  2  0
 16 17  1  0
 17 18  2  0
 18 19  1  0
 19 20  2  0
 20 11  1  0
 20 15  1  0
  1 21  1  0
  1 22  1  0
  1 23  1  0
  2 24  1  0
  2 25  1  0
  4 26  1  0
  4 27  1  0
  5 28  1  0
  5 29  1  0
  5 30  1  0
  8 31  1  0
  9 32  1  0
  9 33  1  0
  9 34  1  0
 12 35  1  0
 13 36  1  0
 14 37  1  0
 16 38  1  0
 17 39  1  0
 18 40  1  0
 19 41  1  0
M  END
>  <Energy>  (3) 
60.653792799956804

>  <Real charge>  (3) 
0

>  <Mult>  (3) 
1

$$$$
mol_608 415
     RDKit          3D

 41 42  0  0  0  0  0  0  0  0999 V2000
    4.3046   -0.5464    0.7778 C   0  0  0  0  0  0  0  0  0  0  0  0
    3.9863   -0.2759   -0.6864 C   0  0  0  0  0  0  0  0  0  0  0  0
    2.5795    0.0615   -0.9144 N   0  0  0  0  0  0  0  0  0  0  0  0
    1.7090   -0.9975   -1.4359 C   0  0  0  0  0  0  0  0  0  0  0  0
    1.3860   -2.0665   -0.4055 C   0  0  0  0  0  0  0  0  0  0  0  0
    2.1578    1.3512   -0.5706 C   0  0  0  0  0  0  0  0  0  0  0  0
    2.9645    2.1885   -0.1520 O   0  0  0  0  0  0  0  0  0  0  0  0
    0.6687    1.7203   -0.7769 C   0  0  0  0  0  0  0  0  0  0  0  0
    0.4389    3.1941   -0.4386 C   0  0  0  0  0  0  0  0  0  0  0  0
   -0.1183    0.9111    0.0970 O   0  0  0  0  0  0  0  0  0  0  0  0
   -1.4363    0.6522   -0.1912 C   0  0  0  0  0  0  0  0  0  0  0  0
   -2.0967    1.0922   -1.3425 C   0  0  0  0  0  0  0  0  0  0  0  0
   -3.4330    0.7597   -1.5606 C   0  0  0  0  0  0  0  0  0  0  0  0
   -4.1228   -0.0150   -0.6319 C   0  0  0  0  0  0  0  0  0  0  0  0
   -3.4899   -0.4649    0.5341 C   0  0  0  0  0  0  0  0  0  0  0  0
   -4.1917   -1.2423    1.4710 C   0  0  0  0  0  0  0  0  0  0  0  0
   -3.5734   -1.6908    2.6376 C   0  0  0  0  0  0  0  0  0  0  0  0
   -2.2457   -1.3658    2.8840 C   0  0  0  0  0  0  0  0  0  0  0  0
   -1.5362   -0.5944    1.9613 C   0  0  0  0  0  0  0  0  0  0  0  0
   -2.1334   -0.1300    0.7681 C   0  0  0  0  0  0  0  0  0  0  0  0
    5.3652   -0.7909    0.8931 H   0  0  0  0  0  0  0  0  0  0  0  0
    3.7201   -1.3837    1.1685 H   0  0  0  0  0  0  0  0  0  0  0  0
    4.0895    0.3256    1.4032 H   0  0  0  0  0  0  0  0  0  0  0  0
    4.2514   -1.1463   -1.2967 H   0  0  0  0  0  0  0  0  0  0  0  0
    4.6047    0.5587   -1.0375 H   0  0  0  0  0  0  0  0  0  0  0  0
    0.7785   -0.5781   -1.8206 H   0  0  0  0  0  0  0  0  0  0  0  0
    2.2127   -1.4505   -2.2978 H   0  0  0  0  0  0  0  0  0  0  0  0
    0.6331   -2.7567   -0.7988 H   0  0  0  0  0  0  0  0  0  0  0  0
    1.0048   -1.6284    0.5205 H   0  0  0  0  0  0  0  0  0  0  0  0
    2.2748   -2.6546   -0.1573 H   0  0  0  0  0  0  0  0  0  0  0  0
    0.4558    1.5452   -1.8369 H   0  0  0  0  0  0  0  0  0  0  0  0
    0.6601    3.3919    0.6166 H   0  0  0  0  0  0  0  0  0  0  0  0
   -0.6046    3.4823   -0.5985 H   0  0  0  0  0  0  0  0  0  0  0  0
    1.0709    3.8454   -1.0508 H   0  0  0  0  0  0  0  0  0  0  0  0
   -1.6093    1.7024   -2.0940 H   0  0  0  0  0  0  0  0  0  0  0  0
   -3.9398    1.1072   -2.4575 H   0  0  0  0  0  0  0  0  0  0  0  0
   -5.1649   -0.2617   -0.8238 H   0  0  0  0  0  0  0  0  0  0  0  0
   -5.2335   -1.5041    1.2985 H   0  0  0  0  0  0  0  0  0  0  0  0
   -4.1302   -2.2895    3.3534 H   0  0  0  0  0  0  0  0  0  0  0  0
   -1.7583   -1.7071    3.7933 H   0  0  0  0  0  0  0  0  0  0  0  0
   -0.4989   -0.3485    2.1820 H   0  0  0  0  0  0  0  0  0  0  0  0
  1  2  1  0
  2  3  1  0
  3  4  1  0
  4  5  1  0
  3  6  1  0
  6  7  2  0
  6  8  1  0
  8  9  1  0
  8 10  1  0
 10 11  1  0
 11 12  2  0
 12 13  1  0
 13 14  2  0
 14 15  1  0
 15 16  2  0
 16 17  1  0
 17 18  2  0
 18 19  1  0
 19 20  2  0
 20 11  1  0
 20 15  1  0
  1 21  1  0
  1 22  1  0
  1 23  1  0
  2 24  1  0
  2 25  1  0
  4 26  1  0
  4 27  1  0
  5 28  1  0
  5 29  1  0
  5 30  1  0
  8 31  1  0
  9 32  1  0
  9 33  1  0
  9 34  1  0
 12 35  1  0
 13 36  1  0
 14 37  1  0
 16 38  1  0
 17 39  1  0
 18 40  1  0
 19 41  1  0
M  END
>  <Energy>  (4) 
60.83115992728293

>  <Real charge>  (4) 
0

>  <Mult>  (4) 
1

$$$$
mol_608 5
     RDKit          3D

 41 42  0  0  0  0  0  0  0  0999 V2000
    3.4950   -0.4500    1.7748 C   0  0  0  0  0  0  0  0  0  0  0  0
    3.6203   -0.7219    0.2814 C   0  0  0  0  0  0  0  0  0  0  0  0
    2.3308   -0.7295   -0.4152 N   0  0  0  0  0  0  0  0  0  0  0  0
    1.9675    0.4854   -1.1534 C   0  0  0  0  0  0  0  0  0  0  0  0
    1.6462    1.6659   -0.2508 C   0  0  0  0  0  0  0  0  0  0  0  0
    1.5265   -1.8560   -0.2565 C   0  0  0  0  0  0  0  0  0  0  0  0
    1.9050   -2.8185    0.4252 O   0  0  0  0  0  0  0  0  0  0  0  0
    0.1577   -1.9675   -0.9728 C   0  0  0  0  0  0  0  0  0  0  0  0
    0.3881   -2.3156   -2.4444 C   0  0  0  0  0  0  0  0  0  0  0  0
   -0.7083   -0.8449   -0.9152 O   0  0  0  0  0  0  0  0  0  0  0  0
   -1.3340   -0.5345    0.2685 C   0  0  0  0  0  0  0  0  0  0  0  0
   -1.1682   -1.2450    1.4616 C   0  0  0  0  0  0  0  0  0  0  0  0
   -1.8324   -0.8427    2.6193 C   0  0  0  0  0  0  0  0  0  0  0  0
   -2.6673    0.2714    2.5974 C   0  0  0  0  0  0  0  0  0  0  0  0
   -2.8530    1.0024    1.4166 C   0  0  0  0  0  0  0  0  0  0  0  0
   -3.6946    2.1276    1.3995 C   0  0  0  0  0  0  0  0  0  0  0  0
   -3.8851    2.8629    0.2300 C   0  0  0  0  0  0  0  0  0  0  0  0
   -3.2372    2.4825   -0.9383 C   0  0  0  0  0  0  0  0  0  0  0  0
   -2.3982    1.3663   -0.9360 C   0  0  0  0  0  0  0  0  0  0  0  0
   -2.1848    0.6024    0.2333 C   0  0  0  0  0  0  0  0  0  0  0  0
    4.4847   -0.4585    2.2422 H   0  0  0  0  0  0  0  0  0  0  0  0
    3.0376    0.5233    1.9710 H   0  0  0  0  0  0  0  0  0  0  0  0
    2.8812   -1.2073    2.2721 H   0  0  0  0  0  0  0  0  0  0  0  0
    4.2764    0.0220   -0.1841 H   0  0  0  0  0  0  0  0  0  0  0  0
    4.0973   -1.6987    0.1367 H   0  0  0  0  0  0  0  0  0  0  0  0
    1.1197    0.3075   -1.8120 H   0  0  0  0  0  0  0  0  0  0  0  0
    2.8087    0.7383   -1.8095 H   0  0  0  0  0  0  0  0  0  0  0  0
    2.5433    2.0235    0.2637 H   0  0  0  0  0  0  0  0  0  0  0  0
    0.9056    1.4023    0.5089 H   0  0  0  0  0  0  0  0  0  0  0  0
    1.2537    2.4985   -0.8430 H   0  0  0  0  0  0  0  0  0  0  0  0
   -0.3638   -2.8357   -0.5463 H   0  0  0  0  0  0  0  0  0  0  0  0
    1.0194   -3.2044   -2.5460 H   0  0  0  0  0  0  0  0  0  0  0  0
   -0.5685   -2.5076   -2.9426 H   0  0  0  0  0  0  0  0  0  0  0  0
    0.8670   -1.4998   -2.9934 H   0  0  0  0  0  0  0  0  0  0  0  0
   -0.5271   -2.1175    1.5364 H   0  0  0  0  0  0  0  0  0  0  0  0
   -1.6958   -1.4003    3.5427 H   0  0  0  0  0  0  0  0  0  0  0  0
   -3.1735    0.5658    3.5142 H   0  0  0  0  0  0  0  0  0  0  0  0
   -4.2115    2.4410    2.3040 H   0  0  0  0  0  0  0  0  0  0  0  0
   -4.5400    3.7300    0.2333 H   0  0  0  0  0  0  0  0  0  0  0  0
   -3.3833    3.0495   -1.8537 H   0  0  0  0  0  0  0  0  0  0  0  0
   -1.9051    1.0875   -1.8651 H   0  0  0  0  0  0  0  0  0  0  0  0
  1  2  1  0
  2  3  1  0
  3  4  1  0
  4  5  1  0
  3  6  1  0
  6  7  2  0
  6  8  1  0
  8  9  1  0
  8 10  1  0
 10 11  1  0
 11 12  2  0
 12 13  1  0
 13 14  2  0
 14 15  1  0
 15 16  2  0
 16 17  1  0
 17 18  2  0
 18 19  1  0
 19 20  2  0
 20 11  1  0
 20 15  1  0
  1 21  1  0
  1 22  1  0
  1 23  1  0
  2 24  1  0
  2 25  1  0
  4 26  1  0
  4 27  1  0
  5 28  1  0
  5 29  1  0
  5 30  1  0
  8 31  1  0
  9 32  1  0
  9 33  1  0
  9 34  1  0
 12 35  1  0
 13 36  1  0
 14 37  1  0
 16 38  1  0
 17 39  1  0
 18 40  1  0
 19 41  1  0
M  END
>  <Energy>  (5) 
60.861289165538295

>  <Real charge>  (5) 
0

>  <Mult>  (5) 
1

$$$$
mol_608 419
     RDKit          3D

 41 42  0  0  0  0  0  0  0  0999 V2000
   -4.7687    1.1231    0.1964 C   0  0  0  0  0  0  0  0  0  0  0  0
   -3.4977    0.9920    1.0206 C   0  0  0  0  0  0  0  0  0  0  0  0
   -2.4538    0.2734    0.2878 N   0  0  0  0  0  0  0  0  0  0  0  0
   -2.3821   -1.1742    0.4933 C   0  0  0  0  0  0  0  0  0  0  0  0
   -1.4971   -1.5332    1.6773 C   0  0  0  0  0  0  0  0  0  0  0  0
   -1.5753    1.0212   -0.5006 C   0  0  0  0  0  0  0  0  0  0  0  0
   -1.6921    2.2475   -0.5950 O   0  0  0  0  0  0  0  0  0  0  0  0
   -0.4680    0.2740   -1.2826 C   0  0  0  0  0  0  0  0  0  0  0  0
   -1.0301   -0.1042   -2.6517 C   0  0  0  0  0  0  0  0  0  0  0  0
    0.6981    1.0775   -1.5227 O   0  0  0  0  0  0  0  0  0  0  0  0
    1.5676    1.0029   -0.4588 C   0  0  0  0  0  0  0  0  0  0  0  0
    1.4399    1.9542    0.5546 C   0  0  0  0  0  0  0  0  0  0  0  0
    2.2893    1.9099    1.6544 C   0  0  0  0  0  0  0  0  0  0  0  0
    3.2758    0.9260    1.7320 C   0  0  0  0  0  0  0  0  0  0  0  0
    3.4400   -0.0167    0.7026 C   0  0  0  0  0  0  0  0  0  0  0  0
    4.4477   -0.9929    0.7742 C   0  0  0  0  0  0  0  0  0  0  0  0
    4.6241   -1.9182   -0.2551 C   0  0  0  0  0  0  0  0  0  0  0  0
    3.7990   -1.8775   -1.3731 C   0  0  0  0  0  0  0  0  0  0  0  0
    2.7911   -0.9158   -1.4582 C   0  0  0  0  0  0  0  0  0  0  0  0
    2.5849    0.0226   -0.4244 C   0  0  0  0  0  0  0  0  0  0  0  0
   -5.1683    0.1393   -0.0703 H   0  0  0  0  0  0  0  0  0  0  0  0
   -5.5349    1.6619    0.7620 H   0  0  0  0  0  0  0  0  0  0  0  0
   -4.5813    1.6697   -0.7336 H   0  0  0  0  0  0  0  0  0  0  0  0
   -3.7051    0.4641    1.9579 H   0  0  0  0  0  0  0  0  0  0  0  0
   -3.1382    1.9909    1.2918 H   0  0  0  0  0  0  0  0  0  0  0  0
   -2.0072   -1.6642   -0.4083 H   0  0  0  0  0  0  0  0  0  0  0  0
   -3.3974   -1.5550    0.6529 H   0  0  0  0  0  0  0  0  0  0  0  0
   -1.8865   -1.1017    2.6051 H   0  0  0  0  0  0  0  0  0  0  0  0
   -0.4772   -1.1597    1.5425 H   0  0  0  0  0  0  0  0  0  0  0  0
   -1.4507   -2.6195    1.8007 H   0  0  0  0  0  0  0  0  0  0  0  0
   -0.1781   -0.6441   -0.7629 H   0  0  0  0  0  0  0  0  0  0  0  0
   -0.2865   -0.6620   -3.2307 H   0  0  0  0  0  0  0  0  0  0  0  0
   -1.2745    0.7929   -3.2324 H   0  0  0  0  0  0  0  0  0  0  0  0
   -1.9369   -0.7106   -2.5702 H   0  0  0  0  0  0  0  0  0  0  0  0
    0.6794    2.7282    0.4853 H   0  0  0  0  0  0  0  0  0  0  0  0
    2.1872    2.6447    2.4486 H   0  0  0  0  0  0  0  0  0  0  0  0
    3.9307    0.9099    2.6007 H   0  0  0  0  0  0  0  0  0  0  0  0
    5.1113   -1.0348    1.6353 H   0  0  0  0  0  0  0  0  0  0  0  0
    5.4123   -2.6633   -0.1864 H   0  0  0  0  0  0  0  0  0  0  0  0
    3.9417   -2.5876   -2.1832 H   0  0  0  0  0  0  0  0  0  0  0  0
    2.1675   -0.8904   -2.3489 H   0  0  0  0  0  0  0  0  0  0  0  0
  1  2  1  0
  2  3  1  0
  3  4  1  0
  4  5  1  0
  3  6  1  0
  6  7  2  0
  6  8  1  0
  8  9  1  0
  8 10  1  0
 10 11  1  0
 11 12  2  0
 12 13  1  0
 13 14  2  0
 14 15  1  0
 15 16  2  0
 16 17  1  0
 17 18  2  0
 18 19  1  0
 19 20  2  0
 20 11  1  0
 20 15  1  0
  1 21  1  0
  1 22  1  0
  1 23  1  0
  2 24  1  0
  2 25  1  0
  4 26  1  0
  4 27  1  0
  5 28  1  0
  5 29  1  0
  5 30  1  0
  8 31  1  0
  9 32  1  0
  9 33  1  0
  9 34  1  0
 12 35  1  0
 13 36  1  0
 14 37  1  0
 16 38  1  0
 17 39  1  0
 18 40  1  0
 19 41  1  0
M  END
>  <Energy>  (6) 
61.096658906480776

>  <Real charge>  (6) 
0

>  <Mult>  (6) 
1

$$$$
mol_608 220
     RDKit          3D

 41 42  0  0  0  0  0  0  0  0999 V2000
    3.2696    1.1206   -1.1827 C   0  0  0  0  0  0  0  0  0  0  0  0
    1.9912    0.7540   -0.4406 C   0  0  0  0  0  0  0  0  0  0  0  0
    2.1445   -0.4647    0.3604 N   0  0  0  0  0  0  0  0  0  0  0  0
    2.8947   -0.3350    1.6130 C   0  0  0  0  0  0  0  0  0  0  0  0
    1.9928    0.0448    2.7792 C   0  0  0  0  0  0  0  0  0  0  0  0
    1.4987   -1.6779    0.1328 C   0  0  0  0  0  0  0  0  0  0  0  0
    1.6602   -2.6383    0.8988 O   0  0  0  0  0  0  0  0  0  0  0  0
    0.5727   -1.8779   -1.0955 C   0  0  0  0  0  0  0  0  0  0  0  0
    1.4063   -1.9574   -2.3735 C   0  0  0  0  0  0  0  0  0  0  0  0
   -0.4648   -0.9303   -1.3082 O   0  0  0  0  0  0  0  0  0  0  0  0
   -1.4076   -0.7416   -0.3255 C   0  0  0  0  0  0  0  0  0  0  0  0
   -1.6309   -1.6325    0.7289 C   0  0  0  0  0  0  0  0  0  0  0  0
   -2.6022   -1.3571    1.6896 C   0  0  0  0  0  0  0  0  0  0  0  0
   -3.3653   -0.1957    1.6015 C   0  0  0  0  0  0  0  0  0  0  0  0
   -3.1746    0.7071    0.5467 C   0  0  0  0  0  0  0  0  0  0  0  0
   -3.9515    1.8745    0.4579 C   0  0  0  0  0  0  0  0  0  0  0  0
   -3.7718    2.7776   -0.5895 C   0  0  0  0  0  0  0  0  0  0  0  0
   -2.8137    2.5247   -1.5630 C   0  0  0  0  0  0  0  0  0  0  0  0
   -2.0336    1.3691   -1.4868 C   0  0  0  0  0  0  0  0  0  0  0  0
   -2.1909    0.4374   -0.4363 C   0  0  0  0  0  0  0  0  0  0  0  0
    4.0806    1.3706   -0.4925 H   0  0  0  0  0  0  0  0  0  0  0  0
    3.6130    0.2936   -1.8119 H   0  0  0  0  0  0  0  0  0  0  0  0
    3.0973    1.9916   -1.8229 H   0  0  0  0  0  0  0  0  0  0  0  0
    1.1951    0.6525   -1.1735 H   0  0  0  0  0  0  0  0  0  0  0  0
    1.6966    1.5695    0.2290 H   0  0  0  0  0  0  0  0  0  0  0  0
    3.3933   -1.2846    1.8384 H   0  0  0  0  0  0  0  0  0  0  0  0
    3.6836    0.4133    1.4912 H   0  0  0  0  0  0  0  0  0  0  0  0
    2.5787    0.1289    3.6996 H   0  0  0  0  0  0  0  0  0  0  0  0
    1.4989    1.0052    2.6003 H   0  0  0  0  0  0  0  0  0  0  0  0
    1.2120   -0.7058    2.9390 H   0  0  0  0  0  0  0  0  0  0  0  0
    0.1118   -2.8696   -0.9873 H   0  0  0  0  0  0  0  0  0  0  0  0
    2.2727   -2.6145   -2.2489 H   0  0  0  0  0  0  0  0  0  0  0  0
    1.7593   -0.9742   -2.6955 H   0  0  0  0  0  0  0  0  0  0  0  0
    0.7936   -2.3427   -3.1964 H   0  0  0  0  0  0  0  0  0  0  0  0
   -1.0710   -2.5562    0.8361 H   0  0  0  0  0  0  0  0  0  0  0  0
   -2.7646   -2.0528    2.5093 H   0  0  0  0  0  0  0  0  0  0  0  0
   -4.1171   -0.0029    2.3638 H   0  0  0  0  0  0  0  0  0  0  0  0
   -4.7090    2.0889    1.2088 H   0  0  0  0  0  0  0  0  0  0  0  0
   -4.3825    3.6747   -0.6448 H   0  0  0  0  0  0  0  0  0  0  0  0
   -2.6720    3.2219   -2.3843 H   0  0  0  0  0  0  0  0  0  0  0  0
   -1.2940    1.1913   -2.2648 H   0  0  0  0  0  0  0  0  0  0  0  0
  1  2  1  0
  2  3  1  0
  3  4  1  0
  4  5  1  0
  3  6  1  0
  6  7  2  0
  6  8  1  0
  8  9  1  0
  8 10  1  0
 10 11  1  0
 11 12  2  0
 12 13  1  0
 13 14  2  0
 14 15  1  0
 15 16  2  0
 16 17  1  0
 17 18  2  0
 18 19  1  0
 19 20  2  0
 20 11  1  0
 20 15  1  0
  1 21  1  0
  1 22  1  0
  1 23  1  0
  2 24  1  0
  2 25  1  0
  4 26  1  0
  4 27  1  0
  5 28  1  0
  5 29  1  0
  5 30  1  0
  8 31  1  0
  9 32  1  0
  9 33  1  0
  9 34  1  0
 12 35  1  0
 13 36  1  0
 14 37  1  0
 16 38  1  0
 17 39  1  0
 18 40  1  0
 19 41  1  0
M  END
>  <Energy>  (7) 
61.13126323168551

>  <Real charge>  (7) 
0

>  <Mult>  (7) 
1

$$$$
