mol_960 166
     RDKit          3D

 23 22  0  0  0  0  0  0  0  0999 V2000
    3.3120    0.8932   -0.0293 C   0  0  0  0  0  0  0  0  0  0  0  0
    2.2557   -0.2006   -0.0501 C   0  0  0  0  0  0  0  0  0  0  0  0
    0.9985    0.2511   -0.7926 C   0  0  0  0  0  0  0  0  0  0  0  0
   -0.0339   -0.8431   -0.8305 C   0  0  0  0  0  0  0  0  0  0  0  0
   -1.1922   -0.8722   -0.1438 C   0  0  0  0  0  0  0  0  0  0  0  0
   -1.6690    0.1515    0.8511 C   0  0  0  0  0  0  0  0  0  0  0  0
   -2.6319    1.1505    0.2258 C   0  0  0  0  0  0  0  0  0  0  0  0
   -2.0732   -2.0569   -0.3591 C   0  0  0  0  0  0  0  0  0  0  0  0
   -3.1457   -2.2016    0.2149 O   0  0  0  0  0  0  0  0  0  0  0  0
    4.2028    0.5497    0.5059 H   0  0  0  0  0  0  0  0  0  0  0  0
    2.9379    1.7902    0.4745 H   0  0  0  0  0  0  0  0  0  0  0  0
    3.6114    1.1688   -1.0456 H   0  0  0  0  0  0  0  0  0  0  0  0
    2.0040   -0.4747    0.9817 H   0  0  0  0  0  0  0  0  0  0  0  0
    2.6753   -1.0946   -0.5275 H   0  0  0  0  0  0  0  0  0  0  0  0
    1.2532    0.5148   -1.8266 H   0  0  0  0  0  0  0  0  0  0  0  0
    0.6023    1.1647   -0.3373 H   0  0  0  0  0  0  0  0  0  0  0  0
    0.2133   -1.6603   -1.5079 H   0  0  0  0  0  0  0  0  0  0  0  0
   -0.8225    0.6928    1.2882 H   0  0  0  0  0  0  0  0  0  0  0  0
   -2.1567   -0.3462    1.6982 H   0  0  0  0  0  0  0  0  0  0  0  0
   -2.9556    1.8806    0.9745 H   0  0  0  0  0  0  0  0  0  0  0  0
   -2.1567    1.6978   -0.5953 H   0  0  0  0  0  0  0  0  0  0  0  0
   -3.5251    0.6537   -0.1673 H   0  0  0  0  0  0  0  0  0  0  0  0
   -1.7039   -2.8092   -1.0763 H   0  0  0  0  0  0  0  0  0  0  0  0
  1  2  1  0
  2  3  1  0
  3  4  1  0
  4  5  2  3
  5  6  1  0
  6  7  1  0
  5  8  1  0
  8  9  2  0
  1 10  1  0
  1 11  1  0
  1 12  1  0
  2 13  1  0
  2 14  1  0
  3 15  1  0
  3 16  1  0
  4 17  1  0
  6 18  1  0
  6 19  1  0
  7 20  1  0
  7 21  1  0
  7 22  1  0
  8 23  1  0
M  END
>  <Energy>  (1) 
7.0843439229359175

>  <Real charge>  (1) 
0

>  <Mult>  (1) 
1

$$$$
mol_960 79
     RDKit          3D

 23 22  0  0  0  0  0  0  0  0999 V2000
    2.4884   -0.4025    0.9100 C   0  0  0  0  0  0  0  0  0  0  0  0
    2.3593    0.8857    0.1095 C   0  0  0  0  0  0  0  0  0  0  0  0
    0.9070    1.2776   -0.1731 C   0  0  0  0  0  0  0  0  0  0  0  0
    0.2140    0.3220   -1.1075 C   0  0  0  0  0  0  0  0  0  0  0  0
   -0.8232   -0.4833   -0.8074 C   0  0  0  0  0  0  0  0  0  0  0  0
   -1.4743   -0.6444    0.5399 C   0  0  0  0  0  0  0  0  0  0  0  0
   -2.7253    0.2115    0.6749 C   0  0  0  0  0  0  0  0  0  0  0  0
   -1.3579   -1.3308   -1.9131 C   0  0  0  0  0  0  0  0  0  0  0  0
   -2.2927   -2.1082   -1.7632 O   0  0  0  0  0  0  0  0  0  0  0  0
    2.1018   -1.2617    0.3536 H   0  0  0  0  0  0  0  0  0  0  0  0
    1.9449   -0.3312    1.8575 H   0  0  0  0  0  0  0  0  0  0  0  0
    3.5409   -0.5992    1.1379 H   0  0  0  0  0  0  0  0  0  0  0  0
    2.8365    1.6965    0.6730 H   0  0  0  0  0  0  0  0  0  0  0  0
    2.9141    0.7855   -0.8312 H   0  0  0  0  0  0  0  0  0  0  0  0
    0.8989    2.2670   -0.6474 H   0  0  0  0  0  0  0  0  0  0  0  0
    0.3654    1.3958    0.7709 H   0  0  0  0  0  0  0  0  0  0  0  0
    0.6106    0.3343   -2.1226 H   0  0  0  0  0  0  0  0  0  0  0  0
   -1.7306   -1.6971    0.7103 H   0  0  0  0  0  0  0  0  0  0  0  0
   -0.7757   -0.3889    1.3440 H   0  0  0  0  0  0  0  0  0  0  0  0
   -3.4777   -0.0578   -0.0737 H   0  0  0  0  0  0  0  0  0  0  0  0
   -2.4919    1.2751    0.5569 H   0  0  0  0  0  0  0  0  0  0  0  0
   -3.1716    0.0724    1.6649 H   0  0  0  0  0  0  0  0  0  0  0  0
   -0.8610   -1.2183   -2.8914 H   0  0  0  0  0  0  0  0  0  0  0  0
  1  2  1  0
  2  3  1  0
  3  4  1  0
  4  5  2  3
  5  6  1  0
  6  7  1  0
  5  8  1  0
  8  9  2  0
  1 10  1  0
  1 11  1  0
  1 12  1  0
  2 13  1  0
  2 14  1  0
  3 15  1  0
  3 16  1  0
  4 17  1  0
  6 18  1  0
  6 19  1  0
  7 20  1  0
  7 21  1  0
  7 22  1  0
  8 23  1  0
M  END
>  <Energy>  (2) 
7.167411468233669

>  <Real charge>  (2) 
0

>  <Mult>  (2) 
1

$$$$
mol_960 359
     RDKit          3D

 23 22  0  0  0  0  0  0  0  0999 V2000
    3.1335   -0.4223   -1.0716 C   0  0  0  0  0  0  0  0  0  0  0  0
    1.9538    0.4638   -0.7027 C   0  0  0  0  0  0  0  0  0  0  0  0
    1.2327   -0.0548    0.5429 C   0  0  0  0  0  0  0  0  0  0  0  0
    0.0784    0.8393    0.9090 C   0  0  0  0  0  0  0  0  0  0  0  0
   -1.2250    0.5004    0.9402 C   0  0  0  0  0  0  0  0  0  0  0  0
   -1.8112   -0.8548    0.6492 C   0  0  0  0  0  0  0  0  0  0  0  0
   -2.2546   -0.9824   -0.8010 C   0  0  0  0  0  0  0  0  0  0  0  0
   -2.1880    1.5746    1.3230 C   0  0  0  0  0  0  0  0  0  0  0  0
   -3.3983    1.3939    1.3817 O   0  0  0  0  0  0  0  0  0  0  0  0
    3.6353   -0.0334   -1.9632 H   0  0  0  0  0  0  0  0  0  0  0  0
    3.8655   -0.4594   -0.2585 H   0  0  0  0  0  0  0  0  0  0  0  0
    2.8047   -1.4443   -1.2856 H   0  0  0  0  0  0  0  0  0  0  0  0
    2.3139    1.4858   -0.5328 H   0  0  0  0  0  0  0  0  0  0  0  0
    1.2576    0.5041   -1.5493 H   0  0  0  0  0  0  0  0  0  0  0  0
    1.9289   -0.0805    1.3899 H   0  0  0  0  0  0  0  0  0  0  0  0
    0.9129   -1.0864    0.3695 H   0  0  0  0  0  0  0  0  0  0  0  0
    0.3741    1.8579    1.1605 H   0  0  0  0  0  0  0  0  0  0  0  0
   -2.6649   -1.0472    1.3105 H   0  0  0  0  0  0  0  0  0  0  0  0
   -1.0932   -1.6493    0.8782 H   0  0  0  0  0  0  0  0  0  0  0  0
   -2.6774   -1.9763   -0.9795 H   0  0  0  0  0  0  0  0  0  0  0  0
   -3.0206   -0.2411   -1.0517 H   0  0  0  0  0  0  0  0  0  0  0  0
   -1.4111   -0.8470   -1.4864 H   0  0  0  0  0  0  0  0  0  0  0  0
   -1.7471    2.5596    1.5515 H   0  0  0  0  0  0  0  0  0  0  0  0
  1  2  1  0
  2  3  1  0
  3  4  1  0
  4  5  2  3
  5  6  1  0
  6  7  1  0
  5  8  1  0
  8  9  2  0
  1 10  1  0
  1 11  1  0
  1 12  1  0
  2 13  1  0
  2 14  1  0
  3 15  1  0
  3 16  1  0
  4 17  1  0
  6 18  1  0
  6 19  1  0
  7 20  1  0
  7 21  1  0
  7 22  1  0
  8 23  1  0
M  END
>  <Energy>  (3) 
7.2350372796682

>  <Real charge>  (3) 
0

>  <Mult>  (3) 
1

$$$$
mol_960 119
     RDKit          3D

 23 22  0  0  0  0  0  0  0  0999 V2000
    2.2722   -0.9870    0.3218 C   0  0  0  0  0  0  0  0  0  0  0  0
    2.3951    0.2861   -0.5035 C   0  0  0  0  0  0  0  0  0  0  0  0
    1.0530    0.7813   -1.0518 C   0  0  0  0  0  0  0  0  0  0  0  0
    0.1210    1.2534    0.0327 C   0  0  0  0  0  0  0  0  0  0  0  0
   -1.1325    0.8183    0.2660 C   0  0  0  0  0  0  0  0  0  0  0  0
   -1.8962   -0.2061   -0.5293 C   0  0  0  0  0  0  0  0  0  0  0  0
   -1.8300   -1.5885    0.1037 C   0  0  0  0  0  0  0  0  0  0  0  0
   -1.8540    1.4411    1.4149 C   0  0  0  0  0  0  0  0  0  0  0  0
   -2.9999    1.1380    1.7245 O   0  0  0  0  0  0  0  0  0  0  0  0
    1.6674   -0.8273    1.2196 H   0  0  0  0  0  0  0  0  0  0  0  0
    3.2632   -1.3241    0.6423 H   0  0  0  0  0  0  0  0  0  0  0  0
    1.8155   -1.7907   -0.2644 H   0  0  0  0  0  0  0  0  0  0  0  0
    2.8680    1.0677    0.1033 H   0  0  0  0  0  0  0  0  0  0  0  0
    3.0673    0.0918   -1.3478 H   0  0  0  0  0  0  0  0  0  0  0  0
    1.2421    1.6289   -1.7217 H   0  0  0  0  0  0  0  0  0  0  0  0
    0.6081   -0.0075   -1.6656 H   0  0  0  0  0  0  0  0  0  0  0  0
    0.5475    2.0259    0.6728 H   0  0  0  0  0  0  0  0  0  0  0  0
   -1.5227   -0.2634   -1.5571 H   0  0  0  0  0  0  0  0  0  0  0  0
   -2.9449    0.1009   -0.6263 H   0  0  0  0  0  0  0  0  0  0  0  0
   -2.3978   -2.3054   -0.4981 H   0  0  0  0  0  0  0  0  0  0  0  0
   -0.7972   -1.9463    0.1672 H   0  0  0  0  0  0  0  0  0  0  0  0
   -2.2533   -1.5880    1.1134 H   0  0  0  0  0  0  0  0  0  0  0  0
   -1.2921    2.2011    1.9835 H   0  0  0  0  0  0  0  0  0  0  0  0
  1  2  1  0
  2  3  1  0
  3  4  1  0
  4  5  2  3
  5  6  1  0
  6  7  1  0
  5  8  1  0
  8  9  2  0
  1 10  1  0
  1 11  1  0
  1 12  1  0
  2 13  1  0
  2 14  1  0
  3 15  1  0
  3 16  1  0
  4 17  1  0
  6 18  1  0
  6 19  1  0
  7 20  1  0
  7 21  1  0
  7 22  1  0
  8 23  1  0
M  END
>  <Energy>  (4) 
7.254523495310147

>  <Real charge>  (4) 
0

>  <Mult>  (4) 
1

$$$$
mol_960 45
     RDKit          3D

 23 22  0  0  0  0  0  0  0  0999 V2000
   -3.0427    0.0668   -0.9730 C   0  0  0  0  0  0  0  0  0  0  0  0
   -2.2052    0.6422    0.1605 C   0  0  0  0  0  0  0  0  0  0  0  0
   -1.1819   -0.3451    0.7266 C   0  0  0  0  0  0  0  0  0  0  0  0
   -0.1192   -0.7335   -0.2665 C   0  0  0  0  0  0  0  0  0  0  0  0
    1.1447   -0.2692   -0.3014 C   0  0  0  0  0  0  0  0  0  0  0  0
    1.7373    0.7790    0.6016 C   0  0  0  0  0  0  0  0  0  0  0  0
    2.5327    0.1654    1.7449 C   0  0  0  0  0  0  0  0  0  0  0  0
    2.0341   -0.8150   -1.3677 C   0  0  0  0  0  0  0  0  0  0  0  0
    3.1982   -0.4605   -1.5089 O   0  0  0  0  0  0  0  0  0  0  0  0
   -3.8040    0.7903   -1.2817 H   0  0  0  0  0  0  0  0  0  0  0  0
   -2.4291   -0.1639   -1.8490 H   0  0  0  0  0  0  0  0  0  0  0  0
   -3.5538   -0.8483   -0.6575 H   0  0  0  0  0  0  0  0  0  0  0  0
   -2.8795    0.9462    0.9702 H   0  0  0  0  0  0  0  0  0  0  0  0
   -1.6990    1.5507   -0.1875 H   0  0  0  0  0  0  0  0  0  0  0  0
   -0.7340    0.0868    1.6283 H   0  0  0  0  0  0  0  0  0  0  0  0
   -1.6926   -1.2571    1.0601 H   0  0  0  0  0  0  0  0  0  0  0  0
   -0.4393   -1.4810   -0.9917 H   0  0  0  0  0  0  0  0  0  0  0  0
    0.9537    1.4238    1.0150 H   0  0  0  0  0  0  0  0  0  0  0  0
    2.3842    1.4502    0.0237 H   0  0  0  0  0  0  0  0  0  0  0  0
    2.9442    0.9542    2.3829 H   0  0  0  0  0  0  0  0  0  0  0  0
    3.3685   -0.4367    1.3739 H   0  0  0  0  0  0  0  0  0  0  0  0
    1.9002   -0.4761    2.3677 H   0  0  0  0  0  0  0  0  0  0  0  0
    1.5824   -1.5692   -2.0339 H   0  0  0  0  0  0  0  0  0  0  0  0
  1  2  1  0
  2  3  1  0
  3  4  1  0
  4  5  2  3
  5  6  1  0
  6  7  1  0
  5  8  1  0
  8  9  2  0
  1 10  1  0
  1 11  1  0
  1 12  1  0
  2 13  1  0
  2 14  1  0
  3 15  1  0
  3 16  1  0
  4 17  1  0
  6 18  1  0
  6 19  1  0
  7 20  1  0
  7 21  1  0
  7 22  1  0
  8 23  1  0
M  END
>  <Energy>  (5) 
7.518679906468136

>  <Real charge>  (5) 
0

>  <Mult>  (5) 
1

$$$$
mol_960 213
     RDKit          3D

 23 22  0  0  0  0  0  0  0  0999 V2000
   -3.0199    0.2248    0.6622 C   0  0  0  0  0  0  0  0  0  0  0  0
   -1.9510    0.9080   -0.1792 C   0  0  0  0  0  0  0  0  0  0  0  0
   -1.0902   -0.0658   -0.9894 C   0  0  0  0  0  0  0  0  0  0  0  0
   -0.2444   -0.9654   -0.1275 C   0  0  0  0  0  0  0  0  0  0  0  0
    1.0924   -0.9098    0.0300 C   0  0  0  0  0  0  0  0  0  0  0  0
    2.0427    0.0502   -0.6340 C   0  0  0  0  0  0  0  0  0  0  0  0
    2.3446    1.2533    0.2480 C   0  0  0  0  0  0  0  0  0  0  0  0
    1.7003   -1.9179    0.9481 C   0  0  0  0  0  0  0  0  0  0  0  0
    2.9025   -1.9698    1.1779 O   0  0  0  0  0  0  0  0  0  0  0  0
   -2.5782   -0.3936    1.4492 H   0  0  0  0  0  0  0  0  0  0  0  0
   -3.6527    0.9756    1.1464 H   0  0  0  0  0  0  0  0  0  0  0  0
   -3.6616   -0.4093    0.0422 H   0  0  0  0  0  0  0  0  0  0  0  0
   -1.3152    1.5217    0.4703 H   0  0  0  0  0  0  0  0  0  0  0  0
   -2.4468    1.5945   -0.8762 H   0  0  0  0  0  0  0  0  0  0  0  0
   -1.7337   -0.6939   -1.6177 H   0  0  0  0  0  0  0  0  0  0  0  0
   -0.4747    0.5169   -1.6811 H   0  0  0  0  0  0  0  0  0  0  0  0
   -0.8131   -1.7270    0.4057 H   0  0  0  0  0  0  0  0  0  0  0  0
    2.9792   -0.4616   -0.8870 H   0  0  0  0  0  0  0  0  0  0  0  0
    1.6447    0.3995   -1.5921 H   0  0  0  0  0  0  0  0  0  0  0  0
    3.0389    1.9290   -0.2617 H   0  0  0  0  0  0  0  0  0  0  0  0
    1.4331    1.8161    0.4756 H   0  0  0  0  0  0  0  0  0  0  0  0
    2.8042    0.9506    1.1947 H   0  0  0  0  0  0  0  0  0  0  0  0
    0.9989   -2.6260    1.4207 H   0  0  0  0  0  0  0  0  0  0  0  0
  1  2  1  0
  2  3  1  0
  3  4  1  0
  4  5  2  3
  5  6  1  0
  6  7  1  0
  5  8  1  0
  8  9  2  0
  1 10  1  0
  1 11  1  0
  1 12  1  0
  2 13  1  0
  2 14  1  0
  3 15  1  0
  3 16  1  0
  4 17  1  0
  6 18  1  0
  6 19  1  0
  7 20  1  0
  7 21  1  0
  7 22  1  0
  8 23  1  0
M  END
>  <Energy>  (6) 
7.810670672015758

>  <Real charge>  (6) 
0

>  <Mult>  (6) 
1

$$$$
