mol_672 54
     RDKit          3D

  9  8  0  0  0  0  0  0  0  0999 V2000
   -0.8854    0.1450   -0.4566 C   0  0  0  0  0  0  0  0  0  0  0  0
    0.2025   -0.3954    0.4556 C   0  0  0  0  0  0  0  0  0  0  0  0
    1.4758    0.3006    0.2352 C   0  0  0  0  0  0  0  0  0  0  0  0
    2.4834    0.8495    0.0625 N   0  0  0  0  0  0  0  0  0  0  0  0
   -1.8274   -0.3838   -0.2800 H   0  0  0  0  0  0  0  0  0  0  0  0
   -0.6165    0.0188   -1.5110 H   0  0  0  0  0  0  0  0  0  0  0  0
   -1.0559    1.2126   -0.2798 H   0  0  0  0  0  0  0  0  0  0  0  0
   -0.1071   -0.2792    1.5000 H   0  0  0  0  0  0  0  0  0  0  0  0
    0.3304   -1.4681    0.2739 H   0  0  0  0  0  0  0  0  0  0  0  0
  1  2  1  0
  2  3  1  0
  3  4  3  0
  1  5  1  0
  1  6  1  0
  1  7  1  0
  2  8  1  0
  2  9  1  0
M  END
>  <Energy>  (1) 
-1.8496373376955224

>  <Real charge>  (1) 
0

>  <Mult>  (1) 
1

$$$$
