mol_185 380
     RDKit          3D

 29 29  0  0  0  0  0  0  0  0999 V2000
   -2.7019    2.1151    1.0438 C   0  0  0  0  0  0  0  0  0  0  0  0
   -2.2991    1.5384   -0.2978 C   0  0  0  0  0  0  0  0  0  0  0  0
   -1.1724    0.6976   -0.1054 O   0  0  0  0  0  0  0  0  0  0  0  0
   -0.7402   -0.3381   -1.2764 P   0  0  0  0  0  5  0  0  0  0  0  0
   -0.4840    0.4073   -3.0526 S   0  0  0  0  0  0  0  0  0  0  0  0
   -1.9838   -1.6472   -1.1438 C   0  0  0  0  0  0  0  0  0  0  0  0
   -2.1793   -2.2018    0.2550 C   0  0  0  0  0  0  0  0  0  0  0  0
    0.5429   -1.0678   -0.6207 O   0  0  0  0  0  0  0  0  0  0  0  0
    1.7457   -0.5008   -0.2970 C   0  0  0  0  0  0  0  0  0  0  0  0
    1.9693    0.8765   -0.2912 C   0  0  0  0  0  0  0  0  0  0  0  0
    3.2263    1.3848    0.0611 C   0  0  0  0  0  0  0  0  0  0  0  0
    3.4273    3.1014    0.0513 Cl  0  0  0  0  0  0  0  0  0  0  0  0
    4.2639    0.5132    0.4107 C   0  0  0  0  0  0  0  0  0  0  0  0
    5.8354    1.0745    0.8570 Cl  0  0  0  0  0  0  0  0  0  0  0  0
    4.0430   -0.8648    0.4109 C   0  0  0  0  0  0  0  0  0  0  0  0
    2.7884   -1.3668    0.0610 C   0  0  0  0  0  0  0  0  0  0  0  0
    2.5590   -3.0797    0.0821 Cl  0  0  0  0  0  0  0  0  0  0  0  0
   -1.8734    2.6783    1.4860 H   0  0  0  0  0  0  0  0  0  0  0  0
   -3.5648    2.7787    0.9404 H   0  0  0  0  0  0  0  0  0  0  0  0
   -2.9537    1.3144    1.7471 H   0  0  0  0  0  0  0  0  0  0  0  0
   -2.0308    2.3461   -0.9851 H   0  0  0  0  0  0  0  0  0  0  0  0
   -3.1296    0.9687   -0.7244 H   0  0  0  0  0  0  0  0  0  0  0  0
   -2.9408   -1.2646   -1.5143 H   0  0  0  0  0  0  0  0  0  0  0  0
   -1.6873   -2.4643   -1.8113 H   0  0  0  0  0  0  0  0  0  0  0  0
   -1.2466   -2.6224    0.6422 H   0  0  0  0  0  0  0  0  0  0  0  0
   -2.5037   -1.4173    0.9446 H   0  0  0  0  0  0  0  0  0  0  0  0
   -2.9369   -2.9911    0.2516 H   0  0  0  0  0  0  0  0  0  0  0  0
    1.1824    1.5778   -0.5514 H   0  0  0  0  0  0  0  0  0  0  0  0
    4.8450   -1.5464    0.6839 H   0  0  0  0  0  0  0  0  0  0  0  0
  1  2  1  0
  2  3  1  0
  3  4  1  0
  4  5  2  0
  4  6  1  0
  6  7  1  0
  4  8  1  0
  8  9  1  0
  9 10  2  0
 10 11  1  0
 11 12  1  0
 11 13  2  0
 13 14  1  0
 13 15  1  0
 15 16  2  0
 16 17  1  0
 16  9  1  0
  1 18  1  0
  1 19  1  0
  1 20  1  0
  2 21  1  0
  2 22  1  0
  6 23  1  0
  6 24  1  0
  7 25  1  0
  7 26  1  0
  7 27  1  0
 10 28  1  0
 15 29  1  0
M  END
>  <Energy>  (1) 
-3.737873342138207

>  <Real charge>  (1) 
0

>  <Mult>  (1) 
1

$$$$
mol_185 133
     RDKit          3D

 29 29  0  0  0  0  0  0  0  0999 V2000
   -2.6480    2.6473    0.7094 C   0  0  0  0  0  0  0  0  0  0  0  0
   -2.3338    1.6803   -0.4135 C   0  0  0  0  0  0  0  0  0  0  0  0
   -1.2174    0.8932   -0.0295 O   0  0  0  0  0  0  0  0  0  0  0  0
   -0.8726   -0.4623   -0.8531 P   0  0  0  0  0  5  0  0  0  0  0  0
   -0.7041   -0.2884   -2.7813 S   0  0  0  0  0  0  0  0  0  0  0  0
   -2.1328   -1.6077   -0.2390 C   0  0  0  0  0  0  0  0  0  0  0  0
   -1.8843   -3.0604   -0.6004 C   0  0  0  0  0  0  0  0  0  0  0  0
    0.4302   -0.9978   -0.0613 O   0  0  0  0  0  0  0  0  0  0  0  0
    1.6701   -0.4197   -0.0229 C   0  0  0  0  0  0  0  0  0  0  0  0
    1.9157    0.8948   -0.4211 C   0  0  0  0  0  0  0  0  0  0  0  0
    3.2103    1.4240   -0.3437 C   0  0  0  0  0  0  0  0  0  0  0  0
    3.4378    3.0611   -0.8492 Cl  0  0  0  0  0  0  0  0  0  0  0  0
    4.2636    0.6371    0.1359 C   0  0  0  0  0  0  0  0  0  0  0  0
    5.8817    1.2291    0.2589 Cl  0  0  0  0  0  0  0  0  0  0  0  0
    4.0209   -0.6764    0.5407 C   0  0  0  0  0  0  0  0  0  0  0  0
    2.7289   -1.1991    0.4634 C   0  0  0  0  0  0  0  0  0  0  0  0
    2.4745   -2.8287    0.9794 Cl  0  0  0  0  0  0  0  0  0  0  0  0
   -3.5000    3.2823    0.4510 H   0  0  0  0  0  0  0  0  0  0  0  0
   -1.7837    3.2848    0.9228 H   0  0  0  0  0  0  0  0  0  0  0  0
   -2.8787    2.1042    1.6319 H   0  0  0  0  0  0  0  0  0  0  0  0
   -2.0857    2.2348   -1.3234 H   0  0  0  0  0  0  0  0  0  0  0  0
   -3.1997    1.0421   -0.6106 H   0  0  0  0  0  0  0  0  0  0  0  0
   -2.1739   -1.5161    0.8522 H   0  0  0  0  0  0  0  0  0  0  0  0
   -3.1113   -1.3044   -0.6255 H   0  0  0  0  0  0  0  0  0  0  0  0
   -1.8749   -3.1972   -1.6855 H   0  0  0  0  0  0  0  0  0  0  0  0
   -2.6669   -3.6993   -0.1803 H   0  0  0  0  0  0  0  0  0  0  0  0
   -0.9184   -3.3978   -0.2128 H   0  0  0  0  0  0  0  0  0  0  0  0
    1.1172    1.5316   -0.7894 H   0  0  0  0  0  0  0  0  0  0  0  0
    4.8352   -1.2915    0.9160 H   0  0  0  0  0  0  0  0  0  0  0  0
  1  2  1  0
  2  3  1  0
  3  4  1  0
  4  5  2  0
  4  6  1  0
  6  7  1  0
  4  8  1  0
  8  9  1  0
  9 10  2  0
 10 11  1  0
 11 12  1  0
 11 13  2  0
 13 14  1  0
 13 15  1  0
 15 16  2  0
 16 17  1  0
 16  9  1  0
  1 18  1  0
  1 19  1  0
  1 20  1  0
  2 21  1  0
  2 22  1  0
  6 23  1  0
  6 24  1  0
  7 25  1  0
  7 26  1  0
  7 27  1  0
 10 28  1  0
 15 29  1  0
M  END
>  <Energy>  (2) 
-3.6792574252164996

>  <Real charge>  (2) 
0

>  <Mult>  (2) 
1

$$$$
mol_185 150
     RDKit          3D

 29 29  0  0  0  0  0  0  0  0999 V2000
   -3.2205   -1.5453    1.5138 C   0  0  0  0  0  0  0  0  0  0  0  0
   -2.5144   -1.3929    0.1823 C   0  0  0  0  0  0  0  0  0  0  0  0
   -1.3917   -0.5444    0.3639 O   0  0  0  0  0  0  0  0  0  0  0  0
   -0.6689    0.1152   -0.9317 P   0  0  0  0  0  5  0  0  0  0  0  0
   -0.1443   -1.1181   -2.3399 S   0  0  0  0  0  0  0  0  0  0  0  0
   -1.8231    1.4362   -1.3746 C   0  0  0  0  0  0  0  0  0  0  0  0
   -1.2722    2.4350   -2.3753 C   0  0  0  0  0  0  0  0  0  0  0  0
    0.5181    0.9719   -0.2268 O   0  0  0  0  0  0  0  0  0  0  0  0
    1.6804    0.3833    0.1935 C   0  0  0  0  0  0  0  0  0  0  0  0
    1.6638   -0.5485    1.2305 C   0  0  0  0  0  0  0  0  0  0  0  0
    2.8601   -1.1330    1.6576 C   0  0  0  0  0  0  0  0  0  0  0  0
    2.7749   -2.2837    2.9436 Cl  0  0  0  0  0  0  0  0  0  0  0  0
    4.0711   -0.7741    1.0509 C   0  0  0  0  0  0  0  0  0  0  0  0
    5.5838   -1.4560    1.5326 Cl  0  0  0  0  0  0  0  0  0  0  0  0
    4.0848    0.1732    0.0231 C   0  0  0  0  0  0  0  0  0  0  0  0
    2.8901    0.7549   -0.4003 C   0  0  0  0  0  0  0  0  0  0  0  0
    2.9390    1.9270   -1.6652 Cl  0  0  0  0  0  0  0  0  0  0  0  0
   -3.5510   -0.5708    1.8880 H   0  0  0  0  0  0  0  0  0  0  0  0
   -2.5414   -1.9614    2.2653 H   0  0  0  0  0  0  0  0  0  0  0  0
   -4.0903   -2.2017    1.4217 H   0  0  0  0  0  0  0  0  0  0  0  0
   -3.1984   -0.9666   -0.5570 H   0  0  0  0  0  0  0  0  0  0  0  0
   -2.1718   -2.3700   -0.1711 H   0  0  0  0  0  0  0  0  0  0  0  0
   -2.1012    1.9691   -0.4583 H   0  0  0  0  0  0  0  0  0  0  0  0
   -2.7381    0.9911   -1.7792 H   0  0  0  0  0  0  0  0  0  0  0  0
   -0.3690    2.9152   -1.9876 H   0  0  0  0  0  0  0  0  0  0  0  0
   -1.0109    1.9423   -3.3162 H   0  0  0  0  0  0  0  0  0  0  0  0
   -2.0118    3.2126   -2.5880 H   0  0  0  0  0  0  0  0  0  0  0  0
    0.7290   -0.8169    1.7149 H   0  0  0  0  0  0  0  0  0  0  0  0
    5.0239    0.4565   -0.4461 H   0  0  0  0  0  0  0  0  0  0  0  0
  1  2  1  0
  2  3  1  0
  3  4  1  0
  4  5  2  0
  4  6  1  0
  6  7  1  0
  4  8  1  0
  8  9  1  0
  9 10  2  0
 10 11  1  0
 11 12  1  0
 11 13  2  0
 13 14  1  0
 13 15  1  0
 15 16  2  0
 16 17  1  0
 16  9  1  0
  1 18  1  0
  1 19  1  0
  1 20  1  0
  2 21  1  0
  2 22  1  0
  6 23  1  0
  6 24  1  0
  7 25  1  0
  7 26  1  0
  7 27  1  0
 10 28  1  0
 15 29  1  0
M  END
>  <Energy>  (3) 
-3.528645112766693

>  <Real charge>  (3) 
0

>  <Mult>  (3) 
1

$$$$
mol_185 336
     RDKit          3D

 29 29  0  0  0  0  0  0  0  0999 V2000
    3.2307   -1.2723    1.2870 C   0  0  0  0  0  0  0  0  0  0  0  0
    2.5698   -1.0200   -0.0526 C   0  0  0  0  0  0  0  0  0  0  0  0
    1.3243   -0.3791    0.1748 O   0  0  0  0  0  0  0  0  0  0  0  0
    0.5665    0.3529   -1.0588 P   0  0  0  0  0  5  0  0  0  0  0  0
    0.2864   -0.7177   -2.6571 S   0  0  0  0  0  0  0  0  0  0  0  0
    1.5211    1.8744   -1.2786 C   0  0  0  0  0  0  0  0  0  0  0  0
    1.7490    2.6745   -0.0098 C   0  0  0  0  0  0  0  0  0  0  0  0
   -0.7670    0.9261   -0.3308 O   0  0  0  0  0  0  0  0  0  0  0  0
   -1.8485    0.1319   -0.0603 C   0  0  0  0  0  0  0  0  0  0  0  0
   -1.7322   -0.9580    0.8014 C   0  0  0  0  0  0  0  0  0  0  0  0
   -2.8520   -1.7499    1.0749 C   0  0  0  0  0  0  0  0  0  0  0  0
   -2.6435   -3.0882    2.1477 Cl  0  0  0  0  0  0  0  0  0  0  0  0
   -4.0881   -1.4413    0.4919 C   0  0  0  0  0  0  0  0  0  0  0  0
   -5.5099   -2.3765    0.7902 Cl  0  0  0  0  0  0  0  0  0  0  0  0
   -4.2042   -0.3379   -0.3581 C   0  0  0  0  0  0  0  0  0  0  0  0
   -3.0858    0.4503   -0.6283 C   0  0  0  0  0  0  0  0  0  0  0  0
   -3.2615    1.8102   -1.6756 Cl  0  0  0  0  0  0  0  0  0  0  0  0
    3.3921   -0.3296    1.8203 H   0  0  0  0  0  0  0  0  0  0  0  0
    4.1934   -1.7749    1.1590 H   0  0  0  0  0  0  0  0  0  0  0  0
    2.5897   -1.8920    1.9228 H   0  0  0  0  0  0  0  0  0  0  0  0
    3.2131   -0.3906   -0.6741 H   0  0  0  0  0  0  0  0  0  0  0  0
    2.3960   -1.9698   -0.5667 H   0  0  0  0  0  0  0  0  0  0  0  0
    2.4906    1.6225   -1.7217 H   0  0  0  0  0  0  0  0  0  0  0  0
    0.9927    2.5028   -2.0045 H   0  0  0  0  0  0  0  0  0  0  0  0
    2.3227    3.5807   -0.2262 H   0  0  0  0  0  0  0  0  0  0  0  0
    0.7974    2.9699    0.4417 H   0  0  0  0  0  0  0  0  0  0  0  0
    2.3013    2.0867    0.7290 H   0  0  0  0  0  0  0  0  0  0  0  0
   -0.7807   -1.1916    1.2707 H   0  0  0  0  0  0  0  0  0  0  0  0
   -5.1634   -0.0937   -0.8082 H   0  0  0  0  0  0  0  0  0  0  0  0
  1  2  1  0
  2  3  1  0
  3  4  1  0
  4  5  2  0
  4  6  1  0
  6  7  1  0
  4  8  1  0
  8  9  1  0
  9 10  2  0
 10 11  1  0
 11 12  1  0
 11 13  2  0
 13 14  1  0
 13 15  1  0
 15 16  2  0
 16 17  1  0
 16  9  1  0
  1 18  1  0
  1 19  1  0
  1 20  1  0
  2 21  1  0
  2 22  1  0
  6 23  1  0
  6 24  1  0
  7 25  1  0
  7 26  1  0
  7 27  1  0
 10 28  1  0
 15 29  1  0
M  END
>  <Energy>  (4) 
-3.4271125665342126

>  <Real charge>  (4) 
0

>  <Mult>  (4) 
1

$$$$
mol_185 378
     RDKit          3D

 29 29  0  0  0  0  0  0  0  0999 V2000
   -2.4340    1.9700   -1.2383 C   0  0  0  0  0  0  0  0  0  0  0  0
   -2.3208    1.1773    0.0476 C   0  0  0  0  0  0  0  0  0  0  0  0
   -1.0975    0.4612    0.0250 O   0  0  0  0  0  0  0  0  0  0  0  0
   -0.8632   -0.7667    1.0559 P   0  0  0  0  0  5  0  0  0  0  0  0
   -1.1400   -0.3695    2.9386 S   0  0  0  0  0  0  0  0  0  0  0  0
   -1.8930   -2.0898    0.3758 C   0  0  0  0  0  0  0  0  0  0  0  0
   -1.6811   -2.3792   -1.0976 C   0  0  0  0  0  0  0  0  0  0  0  0
    0.6254   -1.2821    0.6472 O   0  0  0  0  0  0  0  0  0  0  0  0
    1.6859   -0.4162    0.6108 C   0  0  0  0  0  0  0  0  0  0  0  0
    2.3686   -0.1310    1.7931 C   0  0  0  0  0  0  0  0  0  0  0  0
    3.4654    0.7356    1.7714 C   0  0  0  0  0  0  0  0  0  0  0  0
    4.2647    1.0581    3.2683 Cl  0  0  0  0  0  0  0  0  0  0  0  0
    3.8840    1.3029    0.5609 C   0  0  0  0  0  0  0  0  0  0  0  0
    5.2306    2.3810    0.4612 Cl  0  0  0  0  0  0  0  0  0  0  0  0
    3.2123    0.9942   -0.6257 C   0  0  0  0  0  0  0  0  0  0  0  0
    2.1189    0.1280   -0.6017 C   0  0  0  0  0  0  0  0  0  0  0  0
    1.3446   -0.2604   -2.0930 Cl  0  0  0  0  0  0  0  0  0  0  0  0
   -1.5875    2.6566   -1.3442 H   0  0  0  0  0  0  0  0  0  0  0  0
   -3.3624    2.5473   -1.2610 H   0  0  0  0  0  0  0  0  0  0  0  0
   -2.4117    1.3017   -2.1056 H   0  0  0  0  0  0  0  0  0  0  0  0
   -2.3239    1.8559    0.9057 H   0  0  0  0  0  0  0  0  0  0  0  0
   -3.1646    0.4872    0.1365 H   0  0  0  0  0  0  0  0  0  0  0  0
   -1.6928   -3.0027    0.9482 H   0  0  0  0  0  0  0  0  0  0  0  0
   -2.9456   -1.8362    0.5415 H   0  0  0  0  0  0  0  0  0  0  0  0
   -2.3499   -3.1786   -1.4306 H   0  0  0  0  0  0  0  0  0  0  0  0
   -1.8793   -1.4907   -1.7037 H   0  0  0  0  0  0  0  0  0  0  0  0
   -0.6513   -2.6943   -1.2881 H   0  0  0  0  0  0  0  0  0  0  0  0
    2.0527   -0.5830    2.7304 H   0  0  0  0  0  0  0  0  0  0  0  0
    3.5454    1.4234   -1.5676 H   0  0  0  0  0  0  0  0  0  0  0  0
  1  2  1  0
  2  3  1  0
  3  4  1  0
  4  5  2  0
  4  6  1  0
  6  7  1  0
  4  8  1  0
  8  9  1  0
  9 10  2  0
 10 11  1  0
 11 12  1  0
 11 13  2  0
 13 14  1  0
 13 15  1  0
 15 16  2  0
 16 17  1  0
 16  9  1  0
  1 18  1  0
  1 19  1  0
  1 20  1  0
  2 21  1  0
  2 22  1  0
  6 23  1  0
  6 24  1  0
  7 25  1  0
  7 26  1  0
  7 27  1  0
 10 28  1  0
 15 29  1  0
M  END
>  <Energy>  (5) 
-3.329375979581498

>  <Real charge>  (5) 
0

>  <Mult>  (5) 
1

$$$$
mol_185 39
     RDKit          3D

 29 29  0  0  0  0  0  0  0  0999 V2000
   -1.8696   -2.7489    1.2168 C   0  0  0  0  0  0  0  0  0  0  0  0
   -2.3118   -1.3601    0.8048 C   0  0  0  0  0  0  0  0  0  0  0  0
   -1.1604   -0.5840    0.5124 O   0  0  0  0  0  0  0  0  0  0  0  0
   -1.0523    0.2061   -0.8991 P   0  0  0  0  0  5  0  0  0  0  0  0
   -1.1344   -0.8787   -2.5096 S   0  0  0  0  0  0  0  0  0  0  0  0
   -2.3180    1.4906   -0.7440 C   0  0  0  0  0  0  0  0  0  0  0  0
   -2.2124    2.3453    0.5053 C   0  0  0  0  0  0  0  0  0  0  0  0
    0.2966    1.0711   -0.6966 O   0  0  0  0  0  0  0  0  0  0  0  0
    1.5713    0.5970   -0.5422 C   0  0  0  0  0  0  0  0  0  0  0  0
    1.8695   -0.7479   -0.3198 C   0  0  0  0  0  0  0  0  0  0  0  0
    3.1994   -1.1580   -0.1610 C   0  0  0  0  0  0  0  0  0  0  0  0
    3.4913   -2.8386    0.1176 Cl  0  0  0  0  0  0  0  0  0  0  0  0
    4.2361   -0.2200   -0.2232 C   0  0  0  0  0  0  0  0  0  0  0  0
    5.8960   -0.6587   -0.0334 Cl  0  0  0  0  0  0  0  0  0  0  0  0
    3.9419    1.1269   -0.4408 C   0  0  0  0  0  0  0  0  0  0  0  0
    2.6150    1.5312   -0.5966 C   0  0  0  0  0  0  0  0  0  0  0  0
    2.2979    3.2102   -0.8568 Cl  0  0  0  0  0  0  0  0  0  0  0  0
   -1.1979   -2.6998    2.0803 H   0  0  0  0  0  0  0  0  0  0  0  0
   -1.3121   -3.2323    0.4079 H   0  0  0  0  0  0  0  0  0  0  0  0
   -2.7303   -3.3724    1.4740 H   0  0  0  0  0  0  0  0  0  0  0  0
   -2.8479   -0.8759    1.6266 H   0  0  0  0  0  0  0  0  0  0  0  0
   -2.9874   -1.4146   -0.0539 H   0  0  0  0  0  0  0  0  0  0  0  0
   -3.3047    1.0155   -0.7710 H   0  0  0  0  0  0  0  0  0  0  0  0
   -2.2511    2.1407   -1.6237 H   0  0  0  0  0  0  0  0  0  0  0  0
   -3.0110    3.0928    0.5264 H   0  0  0  0  0  0  0  0  0  0  0  0
   -1.2522    2.8684    0.5403 H   0  0  0  0  0  0  0  0  0  0  0  0
   -2.2914    1.7322    1.4075 H   0  0  0  0  0  0  0  0  0  0  0  0
    1.0868   -1.4981   -0.2603 H   0  0  0  0  0  0  0  0  0  0  0  0
    4.7434    1.8601   -0.4879 H   0  0  0  0  0  0  0  0  0  0  0  0
  1  2  1  0
  2  3  1  0
  3  4  1  0
  4  5  2  0
  4  6  1  0
  6  7  1  0
  4  8  1  0
  8  9  1  0
  9 10  2  0
 10 11  1  0
 11 12  1  0
 11 13  2  0
 13 14  1  0
 13 15  1  0
 15 16  2  0
 16 17  1  0
 16  9  1  0
  1 18  1  0
  1 19  1  0
  1 20  1  0
  2 21  1  0
  2 22  1  0
  6 23  1  0
  6 24  1  0
  7 25  1  0
  7 26  1  0
  7 27  1  0
 10 28  1  0
 15 29  1  0
M  END
>  <Energy>  (6) 
-3.2651735908069353

>  <Real charge>  (6) 
0

>  <Mult>  (6) 
1

$$$$
mol_185 177
     RDKit          3D

 29 29  0  0  0  0  0  0  0  0999 V2000
   -2.8022    2.1219    0.0776 C   0  0  0  0  0  0  0  0  0  0  0  0
   -2.3458    0.8958   -0.6861 C   0  0  0  0  0  0  0  0  0  0  0  0
   -1.1241    0.4479   -0.1232 O   0  0  0  0  0  0  0  0  0  0  0  0
   -0.5916   -1.0512   -0.4410 P   0  0  0  0  0  5  0  0  0  0  0  0
   -0.4453   -1.5234   -2.3199 S   0  0  0  0  0  0  0  0  0  0  0  0
   -1.6733   -2.0718    0.5885 C   0  0  0  0  0  0  0  0  0  0  0  0
   -1.2219   -3.5134    0.7305 C   0  0  0  0  0  0  0  0  0  0  0  0
    0.7895   -1.1088    0.4171 O   0  0  0  0  0  0  0  0  0  0  0  0
    1.6969   -0.0857    0.3616 C   0  0  0  0  0  0  0  0  0  0  0  0
    2.6026   -0.0305   -0.6964 C   0  0  0  0  0  0  0  0  0  0  0  0
    3.5428    1.0027   -0.7498 C   0  0  0  0  0  0  0  0  0  0  0  0
    4.6350    1.0264   -2.0879 Cl  0  0  0  0  0  0  0  0  0  0  0  0
    3.5790    1.9693    0.2643 C   0  0  0  0  0  0  0  0  0  0  0  0
    4.7141    3.2721    0.2598 Cl  0  0  0  0  0  0  0  0  0  0  0  0
    2.6815    1.8967    1.3340 C   0  0  0  0  0  0  0  0  0  0  0  0
    1.7453    0.8646    1.3854 C   0  0  0  0  0  0  0  0  0  0  0  0
    0.6689    0.7858    2.7317 Cl  0  0  0  0  0  0  0  0  0  0  0  0
   -3.7404    2.5090   -0.3296 H   0  0  0  0  0  0  0  0  0  0  0  0
   -2.0438    2.9105    0.0303 H   0  0  0  0  0  0  0  0  0  0  0  0
   -2.9476    1.8837    1.1365 H   0  0  0  0  0  0  0  0  0  0  0  0
   -2.1840    1.1502   -1.7377 H   0  0  0  0  0  0  0  0  0  0  0  0
   -3.1056    0.1119   -0.6228 H   0  0  0  0  0  0  0  0  0  0  0  0
   -2.6860   -2.0532    0.1726 H   0  0  0  0  0  0  0  0  0  0  0  0
   -1.7252   -1.6173    1.5842 H   0  0  0  0  0  0  0  0  0  0  0  0
   -1.9050   -4.0669    1.3816 H   0  0  0  0  0  0  0  0  0  0  0  0
   -0.2172   -3.5655    1.1606 H   0  0  0  0  0  0  0  0  0  0  0  0
   -1.1950   -4.0122   -0.2426 H   0  0  0  0  0  0  0  0  0  0  0  0
    2.5825   -0.7889   -1.4755 H   0  0  0  0  0  0  0  0  0  0  0  0
    2.7157    2.6404    2.1264 H   0  0  0  0  0  0  0  0  0  0  0  0
  1  2  1  0
  2  3  1  0
  3  4  1  0
  4  5  2  0
  4  6  1  0
  6  7  1  0
  4  8  1  0
  8  9  1  0
  9 10  2  0
 10 11  1  0
 11 12  1  0
 11 13  2  0
 13 14  1  0
 13 15  1  0
 15 16  2  0
 16 17  1  0
 16  9  1  0
  1 18  1  0
  1 19  1  0
  1 20  1  0
  2 21  1  0
  2 22  1  0
  6 23  1  0
  6 24  1  0
  7 25  1  0
  7 26  1  0
  7 27  1  0
 10 28  1  0
 15 29  1  0
M  END
>  <Energy>  (7) 
-3.2584145020872946

>  <Real charge>  (7) 
0

>  <Mult>  (7) 
1

$$$$
