mol_282 27
     RDKit          3D

 17 17  0  0  0  0  0  0  0  0999 V2000
    2.1544    0.1464   -0.0169 C   0  0  0  0  0  0  0  0  0  0  0  0
    0.6889   -0.1869   -0.0189 C   0  0  0  0  0  0  0  0  0  0  0  0
    0.2972   -1.5349   -0.0525 C   0  0  0  0  0  0  0  0  0  0  0  0
   -1.0553   -1.8914   -0.0607 C   0  0  0  0  0  0  0  0  0  0  0  0
   -2.0448   -0.9100   -0.0310 C   0  0  0  0  0  0  0  0  0  0  0  0
   -1.6852    0.4351    0.0157 C   0  0  0  0  0  0  0  0  0  0  0  0
   -0.3265    0.7871    0.0313 C   0  0  0  0  0  0  0  0  0  0  0  0
   -0.0067    2.2095    0.1002 N   0  0  0  0  0  4  0  0  0  0  0  0
   -0.6099    2.9619   -0.6780 O   0  0  0  0  0  1  0  0  0  0  0  0
    0.8265    2.5719    0.9416 O   0  0  0  0  0  0  0  0  0  0  0  0
    2.7557   -0.7121   -0.3361 H   0  0  0  0  0  0  0  0  0  0  0  0
    2.4787    0.4282    0.9895 H   0  0  0  0  0  0  0  0  0  0  0  0
    2.3718    0.9593   -0.7172 H   0  0  0  0  0  0  0  0  0  0  0  0
    1.0466   -2.3248   -0.0775 H   0  0  0  0  0  0  0  0  0  0  0  0
   -1.3362   -2.9422   -0.0923 H   0  0  0  0  0  0  0  0  0  0  0  0
   -3.0943   -1.1947   -0.0411 H   0  0  0  0  0  0  0  0  0  0  0  0
   -2.4610    1.1976    0.0440 H   0  0  0  0  0  0  0  0  0  0  0  0
  1  2  1  0
  2  3  2  0
  3  4  1  0
  4  5  2  0
  5  6  1  0
  6  7  2  0
  7  8  1  0
  8  9  1  0
  8 10  2  0
  7  2  1  0
  1 11  1  0
  1 12  1  0
  1 13  1  0
  3 14  1  0
  4 15  1  0
  5 16  1  0
  6 17  1  0
M  CHG  2   8   1   9  -1
M  END
>  <Energy>  (1) 
55.0681903335737

>  <Real charge>  (1) 
0

>  <Mult>  (1) 
1

$$$$
