mol_247 75
     RDKit          3D

 23 23  0  0  0  0  0  0  0  0999 V2000
    4.0323    0.7416   -1.0801 C   0  0  0  0  0  0  0  0  0  0  0  0
    3.2560    0.3097    0.1486 C   0  0  0  0  0  0  0  0  0  0  0  0
    1.8694    0.2336   -0.2036 O   0  0  0  0  0  0  0  0  0  0  0  0
    1.0578   -0.1470    0.8146 C   0  0  0  0  0  0  0  0  0  0  0  0
    1.4155   -0.4113    1.9517 O   0  0  0  0  0  0  0  0  0  0  0  0
   -0.3596   -0.2006    0.3642 C   0  0  0  0  0  0  0  0  0  0  0  0
   -1.3357   -0.5839    1.2913 C   0  0  0  0  0  0  0  0  0  0  0  0
   -2.6808   -0.6509    0.9131 C   0  0  0  0  0  0  0  0  0  0  0  0
   -3.0778   -0.2968   -0.3784 C   0  0  0  0  0  0  0  0  0  0  0  0
   -4.4034   -0.4813   -0.7833 N   0  0  0  0  0  0  0  0  0  0  0  0
   -2.0943    0.0281   -1.3161 C   0  0  0  0  0  0  0  0  0  0  0  0
   -0.7457    0.0975   -0.9476 C   0  0  0  0  0  0  0  0  0  0  0  0
    5.1011    0.8145   -0.8607 H   0  0  0  0  0  0  0  0  0  0  0  0
    3.6774    1.7137   -1.4382 H   0  0  0  0  0  0  0  0  0  0  0  0
    3.8868    0.0286   -1.8983 H   0  0  0  0  0  0  0  0  0  0  0  0
    3.6076   -0.6732    0.4819 H   0  0  0  0  0  0  0  0  0  0  0  0
    3.3943    1.0435    0.9506 H   0  0  0  0  0  0  0  0  0  0  0  0
   -1.0540   -0.8461    2.3093 H   0  0  0  0  0  0  0  0  0  0  0  0
   -3.4166   -0.9832    1.6410 H   0  0  0  0  0  0  0  0  0  0  0  0
   -4.6701    0.0706   -1.5926 H   0  0  0  0  0  0  0  0  0  0  0  0
   -5.0797   -0.4102   -0.0293 H   0  0  0  0  0  0  0  0  0  0  0  0
   -2.3696    0.2312   -2.3480 H   0  0  0  0  0  0  0  0  0  0  0  0
   -0.0105    0.3718   -1.6997 H   0  0  0  0  0  0  0  0  0  0  0  0
  1  2  1  0
  2  3  1  0
  3  4  1  0
  4  5  2  0
  4  6  1  0
  6  7  2  0
  7  8  1  0
  8  9  2  0
  9 10  1  0
  9 11  1  0
 11 12  2  0
 12  6  1  0
  1 13  1  0
  1 14  1  0
  1 15  1  0
  2 16  1  0
  2 17  1  0
  7 18  1  0
  8 19  1  0
 10 20  1  0
 10 21  1  0
 11 22  1  0
 12 23  1  0
M  END
>  <Energy>  (1) 
17.046065102533454

>  <Real charge>  (1) 
0

>  <Mult>  (1) 
1

$$$$
mol_247 84
     RDKit          3D

 23 23  0  0  0  0  0  0  0  0999 V2000
    3.8626    0.9896    0.5317 C   0  0  0  0  0  0  0  0  0  0  0  0
    3.3246   -0.2997   -0.0597 C   0  0  0  0  0  0  0  0  0  0  0  0
    1.9145   -0.1829   -0.3001 O   0  0  0  0  0  0  0  0  0  0  0  0
    1.1103   -0.4926    0.7476 C   0  0  0  0  0  0  0  0  0  0  0  0
    1.4805   -0.8474    1.8556 O   0  0  0  0  0  0  0  0  0  0  0  0
   -0.3214   -0.3355    0.3724 C   0  0  0  0  0  0  0  0  0  0  0  0
   -1.2946   -0.6226    1.3367 C   0  0  0  0  0  0  0  0  0  0  0  0
   -2.6530   -0.4914    1.0298 C   0  0  0  0  0  0  0  0  0  0  0  0
   -3.0604   -0.0321   -0.2247 C   0  0  0  0  0  0  0  0  0  0  0  0
   -4.4169   -0.0185   -0.5635 N   0  0  0  0  0  0  0  0  0  0  0  0
   -2.0886    0.1968   -1.2021 C   0  0  0  0  0  0  0  0  0  0  0  0
   -0.7269    0.0678   -0.9050 C   0  0  0  0  0  0  0  0  0  0  0  0
    4.9467    0.9329    0.6641 H   0  0  0  0  0  0  0  0  0  0  0  0
    3.4024    1.1986    1.5026 H   0  0  0  0  0  0  0  0  0  0  0  0
    3.6299    1.8380   -0.1202 H   0  0  0  0  0  0  0  0  0  0  0  0
    3.7995   -0.4865   -1.0285 H   0  0  0  0  0  0  0  0  0  0  0  0
    3.5505   -1.1602    0.5805 H   0  0  0  0  0  0  0  0  0  0  0  0
   -1.0021   -0.9635    2.3281 H   0  0  0  0  0  0  0  0  0  0  0  0
   -3.3910   -0.7520    1.7843 H   0  0  0  0  0  0  0  0  0  0  0  0
   -5.0395    0.1109    0.2281 H   0  0  0  0  0  0  0  0  0  0  0  0
   -4.6447    0.5984   -1.3369 H   0  0  0  0  0  0  0  0  0  0  0  0
   -2.3835    0.4792   -2.2097 H   0  0  0  0  0  0  0  0  0  0  0  0
    0.0012    0.2725   -1.6856 H   0  0  0  0  0  0  0  0  0  0  0  0
  1  2  1  0
  2  3  1  0
  3  4  1  0
  4  5  2  0
  4  6  1  0
  6  7  2  0
  7  8  1  0
  8  9  2  0
  9 10  1  0
  9 11  1  0
 11 12  2  0
 12  6  1  0
  1 13  1  0
  1 14  1  0
  1 15  1  0
  2 16  1  0
  2 17  1  0
  7 18  1  0
  8 19  1  0
 10 20  1  0
 10 21  1  0
 11 22  1  0
 12 23  1  0
M  END
>  <Energy>  (2) 
17.49611924090719

>  <Real charge>  (2) 
0

>  <Mult>  (2) 
1

$$$$
