mol_252 9
     RDKit          3D

  9  8  0  0  0  0  0  0  0  0999 V2000
   -1.3685   -0.0738   -0.0338 C   0  0  0  0  0  0  0  0  0  0  0  0
   -0.0103   -0.6935    0.9868 S   0  0  0  0  0  0  0  0  0  0  0  0
    1.3681    0.0433    0.0771 C   0  0  0  0  0  0  0  0  0  0  0  0
   -1.2731   -0.4413   -1.0588 H   0  0  0  0  0  0  0  0  0  0  0  0
   -1.3771    1.0193   -0.0334 H   0  0  0  0  0  0  0  0  0  0  0  0
   -2.3179   -0.4289    0.3756 H   0  0  0  0  0  0  0  0  0  0  0  0
    1.2834    1.1332    0.0744 H   0  0  0  0  0  0  0  0  0  0  0  0
    2.3081   -0.2309    0.5632 H   0  0  0  0  0  0  0  0  0  0  0  0
    1.3874   -0.3274   -0.9510 H   0  0  0  0  0  0  0  0  0  0  0  0
  1  2  1  0
  2  3  1  0
  1  4  1  0
  1  5  1  0
  1  6  1  0
  3  7  1  0
  3  8  1  0
  3  9  1  0
M  END
>  <Energy>  (1) 
3.2309518378035738

>  <Real charge>  (1) 
0

>  <Mult>  (1) 
1

$$$$
