mol_138 173
     RDKit          3D

 17 18  0  0  0  0  0  0  0  0999 V2000
    3.5090    0.1099   -0.3518 O   0  0  0  0  0  0  0  0  0  0  0  0
    2.2888    0.0717   -0.2294 C   0  0  0  0  0  0  0  0  0  0  0  0
    1.6305   -1.1034   -0.0583 N   0  0  0  0  0  0  0  0  0  0  0  0
    0.2813   -1.2634    0.0876 C   0  0  0  0  0  0  0  0  0  0  0  0
   -0.2181   -2.3739    0.2374 O   0  0  0  0  0  0  0  0  0  0  0  0
   -0.5465   -0.0171    0.0548 C   0  0  0  0  0  0  0  0  0  0  0  0
   -1.8003    0.0090    0.9310 C   0  0  0  0  0  0  0  0  0  0  0  0
   -1.9450   -0.1263   -0.5556 C   0  0  0  0  0  0  0  0  0  0  0  0
    0.1795    1.2778   -0.1338 C   0  0  0  0  0  0  0  0  0  0  0  0
   -0.4075    2.3543   -0.1746 O   0  0  0  0  0  0  0  0  0  0  0  0
    1.5382    1.2026   -0.2593 N   0  0  0  0  0  0  0  0  0  0  0  0
    2.1926   -1.9420   -0.0368 H   0  0  0  0  0  0  0  0  0  0  0  0
   -2.0987    0.9490    1.3835 H   0  0  0  0  0  0  0  0  0  0  0  0
   -2.0263   -0.8593    1.5411 H   0  0  0  0  0  0  0  0  0  0  0  0
   -2.2685   -1.0857   -0.9457 H   0  0  0  0  0  0  0  0  0  0  0  0
   -2.3409    0.7226   -1.1033 H   0  0  0  0  0  0  0  0  0  0  0  0
    2.0318    2.0743   -0.3867 H   0  0  0  0  0  0  0  0  0  0  0  0
  1  2  2  0
  2  3  1  0
  3  4  1  0
  4  5  2  0
  4  6  1  0
  6  7  1  0
  7  8  1  0
  6  9  1  0
  9 10  2  0
  9 11  1  0
  8  6  1  0
 11  2  1  0
  3 12  1  0
  7 13  1  0
  7 14  1  0
  8 15  1  0
  8 16  1  0
 11 17  1  0
M  END
>  <Energy>  (1) 
-125.31009818020239

>  <Real charge>  (1) 
0

>  <Mult>  (1) 
1

$$$$
