mol_961 187
     RDKit          3D

 33 32  0  0  0  0  0  0  0  0999 V2000
   -0.6457   -1.4617    3.1801 C   0  0  0  0  0  0  0  0  0  0  0  0
   -1.0497   -1.9593    1.8070 C   0  0  0  0  0  0  0  0  0  0  0  0
   -1.4851   -0.8498    1.0375 O   0  0  0  0  0  0  0  0  0  0  0  0
   -1.9292   -1.0856   -0.5082 P   0  0  0  0  0  5  0  0  0  0  0  0
   -3.4961   -2.2327   -0.6969 S   0  0  0  0  0  0  0  0  0  0  0  0
   -2.2414    0.4602   -0.9174 O   0  0  0  0  0  0  0  0  0  0  0  0
   -3.2751    1.1619   -0.2444 C   0  0  0  0  0  0  0  0  0  0  0  0
   -3.0087    2.6473   -0.3799 C   0  0  0  0  0  0  0  0  0  0  0  0
   -0.1929   -1.5826   -1.5956 S   0  0  0  0  0  0  0  0  0  0  0  0
    0.6973   -0.0131   -1.8089 C   0  0  0  0  0  0  0  0  0  0  0  0
    1.1881    0.6417   -0.5165 C   0  0  0  0  0  0  0  0  0  0  0  0
    2.3241   -0.3506    0.5218 S   0  0  0  0  0  0  0  0  0  0  0  0
    3.6818   -0.6975   -0.6449 C   0  0  0  0  0  0  0  0  0  0  0  0
    4.3988    0.5571   -1.1087 C   0  0  0  0  0  0  0  0  0  0  0  0
    0.1491   -0.7129    3.1036 H   0  0  0  0  0  0  0  0  0  0  0  0
   -0.2952   -2.2866    3.8065 H   0  0  0  0  0  0  0  0  0  0  0  0
   -1.4920   -0.9759    3.6772 H   0  0  0  0  0  0  0  0  0  0  0  0
   -1.8623   -2.6847    1.9047 H   0  0  0  0  0  0  0  0  0  0  0  0
   -0.2001   -2.4442    1.3188 H   0  0  0  0  0  0  0  0  0  0  0  0
   -3.3080    0.8863    0.8139 H   0  0  0  0  0  0  0  0  0  0  0  0
   -4.2349    0.9120   -0.7061 H   0  0  0  0  0  0  0  0  0  0  0  0
   -2.9671    2.9375   -1.4350 H   0  0  0  0  0  0  0  0  0  0  0  0
   -2.0395    2.9057    0.0597 H   0  0  0  0  0  0  0  0  0  0  0  0
   -3.7889    3.2310    0.1165 H   0  0  0  0  0  0  0  0  0  0  0  0
    1.5347   -0.1908   -2.4906 H   0  0  0  0  0  0  0  0  0  0  0  0
    0.0283    0.6818   -2.3277 H   0  0  0  0  0  0  0  0  0  0  0  0
    0.3342    0.9105    0.1136 H   0  0  0  0  0  0  0  0  0  0  0  0
    1.6856    1.5876   -0.7548 H   0  0  0  0  0  0  0  0  0  0  0  0
    3.3073   -1.2729   -1.4961 H   0  0  0  0  0  0  0  0  0  0  0  0
    4.3957   -1.3410   -0.1200 H   0  0  0  0  0  0  0  0  0  0  0  0
    4.7676    1.1463   -0.2626 H   0  0  0  0  0  0  0  0  0  0  0  0
    5.2637    0.2826   -1.7222 H   0  0  0  0  0  0  0  0  0  0  0  0
    3.7556    1.1924   -1.7244 H   0  0  0  0  0  0  0  0  0  0  0  0
  1  2  1  0
  2  3  1  0
  3  4  1  0
  4  5  2  0
  4  6  1  0
  6  7  1  0
  7  8  1  0
  4  9  1  0
  9 10  1  0
 10 11  1  0
 11 12  1  0
 12 13  1  0
 13 14  1  0
  1 15  1  0
  1 16  1  0
  1 17  1  0
  2 18  1  0
  2 19  1  0
  7 20  1  0
  7 21  1  0
  8 22  1  0
  8 23  1  0
  8 24  1  0
 10 25  1  0
 10 26  1  0
 11 27  1  0
 11 28  1  0
 13 29  1  0
 13 30  1  0
 14 31  1  0
 14 32  1  0
 14 33  1  0
M  END
>  <Energy>  (1) 
-70.79778354295112

>  <Real charge>  (1) 
0

>  <Mult>  (1) 
1

$$$$
mol_961 620
     RDKit          3D

 33 32  0  0  0  0  0  0  0  0999 V2000
   -3.3100   -2.5571   -0.4449 C   0  0  0  0  0  0  0  0  0  0  0  0
   -3.3153   -1.3843    0.5143 C   0  0  0  0  0  0  0  0  0  0  0  0
   -2.0274   -1.2828    1.1018 O   0  0  0  0  0  0  0  0  0  0  0  0
   -1.5458    0.1427    1.7266 P   0  0  0  0  0  5  0  0  0  0  0  0
   -2.7617    0.7956    3.1057 S   0  0  0  0  0  0  0  0  0  0  0  0
   -1.5751    1.0335    0.3672 O   0  0  0  0  0  0  0  0  0  0  0  0
   -1.1523    2.3868    0.4204 C   0  0  0  0  0  0  0  0  0  0  0  0
   -1.2215    2.9661   -0.9781 C   0  0  0  0  0  0  0  0  0  0  0  0
    0.4759   -0.1590    2.2408 S   0  0  0  0  0  0  0  0  0  0  0  0
    1.0777   -1.4190    1.0782 C   0  0  0  0  0  0  0  0  0  0  0  0
    1.0692   -1.0082   -0.3955 C   0  0  0  0  0  0  0  0  0  0  0  0
    2.0708    0.4614   -0.8227 S   0  0  0  0  0  0  0  0  0  0  0  0
    3.7258   -0.1428   -0.3670 C   0  0  0  0  0  0  0  0  0  0  0  0
    4.7822    0.8370   -0.8468 C   0  0  0  0  0  0  0  0  0  0  0  0
   -4.2893   -2.6812   -0.9155 H   0  0  0  0  0  0  0  0  0  0  0  0
   -3.0493   -3.4830    0.0785 H   0  0  0  0  0  0  0  0  0  0  0  0
   -2.5575   -2.4108   -1.2269 H   0  0  0  0  0  0  0  0  0  0  0  0
   -4.0549   -1.5515    1.3030 H   0  0  0  0  0  0  0  0  0  0  0  0
   -3.5714   -0.4666   -0.0237 H   0  0  0  0  0  0  0  0  0  0  0  0
   -0.1289    2.4455    0.8004 H   0  0  0  0  0  0  0  0  0  0  0  0
   -1.8093    2.9546    1.0852 H   0  0  0  0  0  0  0  0  0  0  0  0
   -2.2442    2.9128   -1.3661 H   0  0  0  0  0  0  0  0  0  0  0  0
   -0.5912    2.3947   -1.6669 H   0  0  0  0  0  0  0  0  0  0  0  0
   -0.8961    4.0101   -0.9845 H   0  0  0  0  0  0  0  0  0  0  0  0
    2.0869   -1.7074    1.3886 H   0  0  0  0  0  0  0  0  0  0  0  0
    0.4556   -2.3118    1.2024 H   0  0  0  0  0  0  0  0  0  0  0  0
    1.4320   -1.8441   -1.0040 H   0  0  0  0  0  0  0  0  0  0  0  0
    0.0452   -0.8140   -0.7290 H   0  0  0  0  0  0  0  0  0  0  0  0
    3.8961   -1.1213   -0.8262 H   0  0  0  0  0  0  0  0  0  0  0  0
    3.7918   -0.2450    0.7198 H   0  0  0  0  0  0  0  0  0  0  0  0
    4.6530    1.8240   -0.3898 H   0  0  0  0  0  0  0  0  0  0  0  0
    4.7605    0.9511   -1.9360 H   0  0  0  0  0  0  0  0  0  0  0  0
    5.7783    0.4737   -0.5725 H   0  0  0  0  0  0  0  0  0  0  0  0
  1  2  1  0
  2  3  1  0
  3  4  1  0
  4  5  2  0
  4  6  1  0
  6  7  1  0
  7  8  1  0
  4  9  1  0
  9 10  1  0
 10 11  1  0
 11 12  1  0
 12 13  1  0
 13 14  1  0
  1 15  1  0
  1 16  1  0
  1 17  1  0
  2 18  1  0
  2 19  1  0
  7 20  1  0
  7 21  1  0
  8 22  1  0
  8 23  1  0
  8 24  1  0
 10 25  1  0
 10 26  1  0
 11 27  1  0
 11 28  1  0
 13 29  1  0
 13 30  1  0
 14 31  1  0
 14 32  1  0
 14 33  1  0
M  END
>  <Energy>  (2) 
-70.5215044734543

>  <Real charge>  (2) 
0

>  <Mult>  (2) 
1

$$$$
mol_961 159
     RDKit          3D

 33 32  0  0  0  0  0  0  0  0999 V2000
    0.4328    2.9564    0.2757 C   0  0  0  0  0  0  0  0  0  0  0  0
   -0.0014    2.2541   -0.9948 C   0  0  0  0  0  0  0  0  0  0  0  0
   -0.8425    1.1664   -0.6427 O   0  0  0  0  0  0  0  0  0  0  0  0
   -1.4562    0.2335   -1.8265 P   0  0  0  0  0  5  0  0  0  0  0  0
   -2.6825    1.1909   -3.0039 S   0  0  0  0  0  0  0  0  0  0  0  0
   -2.2211   -0.8700   -0.9033 O   0  0  0  0  0  0  0  0  0  0  0  0
   -3.2858   -0.4545   -0.0622 C   0  0  0  0  0  0  0  0  0  0  0  0
   -3.4314   -1.4659    1.0566 C   0  0  0  0  0  0  0  0  0  0  0  0
    0.1515   -0.8139   -2.6922 S   0  0  0  0  0  0  0  0  0  0  0  0
    0.5462   -2.1506   -1.5236 C   0  0  0  0  0  0  0  0  0  0  0  0
    0.9346   -1.7037   -0.1126 C   0  0  0  0  0  0  0  0  0  0  0  0
    2.4830   -0.7396   -0.0654 S   0  0  0  0  0  0  0  0  0  0  0  0
    2.5721   -0.4585    1.7291 C   0  0  0  0  0  0  0  0  0  0  0  0
    3.7667    0.4179    2.0592 C   0  0  0  0  0  0  0  0  0  0  0  0
    1.0880    3.8023    0.0495 H   0  0  0  0  0  0  0  0  0  0  0  0
    0.9637    2.2663    0.9385 H   0  0  0  0  0  0  0  0  0  0  0  0
   -0.4378    3.3223    0.8299 H   0  0  0  0  0  0  0  0  0  0  0  0
   -0.5459    2.9553   -1.6333 H   0  0  0  0  0  0  0  0  0  0  0  0
    0.8746    1.8886   -1.5374 H   0  0  0  0  0  0  0  0  0  0  0  0
   -3.0868    0.5362    0.3574 H   0  0  0  0  0  0  0  0  0  0  0  0
   -4.2082   -0.4127   -0.6492 H   0  0  0  0  0  0  0  0  0  0  0  0
   -4.2510   -1.1918    1.7267 H   0  0  0  0  0  0  0  0  0  0  0  0
   -2.5058   -1.5318    1.6381 H   0  0  0  0  0  0  0  0  0  0  0  0
   -3.6246   -2.4647    0.6515 H   0  0  0  0  0  0  0  0  0  0  0  0
   -0.3332   -2.8005   -1.4607 H   0  0  0  0  0  0  0  0  0  0  0  0
    1.3492   -2.7537   -1.9621 H   0  0  0  0  0  0  0  0  0  0  0  0
    0.1340   -1.1203    0.3498 H   0  0  0  0  0  0  0  0  0  0  0  0
    1.0832   -2.5978    0.5029 H   0  0  0  0  0  0  0  0  0  0  0  0
    1.6523    0.0293    2.0660 H   0  0  0  0  0  0  0  0  0  0  0  0
    2.6650   -1.4217    2.2401 H   0  0  0  0  0  0  0  0  0  0  0  0
    3.6919    1.3982    1.5762 H   0  0  0  0  0  0  0  0  0  0  0  0
    3.8179    0.5853    3.1402 H   0  0  0  0  0  0  0  0  0  0  0  0
    4.7075   -0.0515    1.7524 H   0  0  0  0  0  0  0  0  0  0  0  0
  1  2  1  0
  2  3  1  0
  3  4  1  0
  4  5  2  0
  4  6  1  0
  6  7  1  0
  7  8  1  0
  4  9  1  0
  9 10  1  0
 10 11  1  0
 11 12  1  0
 12 13  1  0
 13 14  1  0
  1 15  1  0
  1 16  1  0
  1 17  1  0
  2 18  1  0
  2 19  1  0
  7 20  1  0
  7 21  1  0
  8 22  1  0
  8 23  1  0
  8 24  1  0
 10 25  1  0
 10 26  1  0
 11 27  1  0
 11 28  1  0
 13 29  1  0
 13 30  1  0
 14 31  1  0
 14 32  1  0
 14 33  1  0
M  END
>  <Energy>  (3) 
-70.05308716457357

>  <Real charge>  (3) 
0

>  <Mult>  (3) 
1

$$$$
mol_961 454
     RDKit          3D

 33 32  0  0  0  0  0  0  0  0999 V2000
   -2.0179    2.2475   -1.7129 C   0  0  0  0  0  0  0  0  0  0  0  0
   -1.9878    0.9813   -0.8808 C   0  0  0  0  0  0  0  0  0  0  0  0
   -1.2612   -0.0067   -1.5916 O   0  0  0  0  0  0  0  0  0  0  0  0
   -0.9334   -1.4338   -0.8868 P   0  0  0  0  0  5  0  0  0  0  0  0
   -0.3758   -2.7336   -2.2303 S   0  0  0  0  0  0  0  0  0  0  0  0
   -2.3961   -1.7728   -0.2612 O   0  0  0  0  0  0  0  0  0  0  0  0
   -2.5900   -3.0062    0.4112 C   0  0  0  0  0  0  0  0  0  0  0  0
   -3.7661   -2.8589    1.3547 C   0  0  0  0  0  0  0  0  0  0  0  0
    0.3641   -1.0581    0.7354 S   0  0  0  0  0  0  0  0  0  0  0  0
    1.9850   -0.7305   -0.0223 C   0  0  0  0  0  0  0  0  0  0  0  0
    2.0641    0.5475   -0.8592 C   0  0  0  0  0  0  0  0  0  0  0  0
    1.6957    2.1129    0.0174 S   0  0  0  0  0  0  0  0  0  0  0  0
    2.9451    2.0955    1.3453 C   0  0  0  0  0  0  0  0  0  0  0  0
    4.3689    2.1369    0.8212 C   0  0  0  0  0  0  0  0  0  0  0  0
   -1.0028    2.5971   -1.9259 H   0  0  0  0  0  0  0  0  0  0  0  0
   -2.4977    2.0609   -2.6794 H   0  0  0  0  0  0  0  0  0  0  0  0
   -2.5643    3.0412   -1.1959 H   0  0  0  0  0  0  0  0  0  0  0  0
   -1.5168    1.1782    0.0856 H   0  0  0  0  0  0  0  0  0  0  0  0
   -3.0106    0.6320   -0.7109 H   0  0  0  0  0  0  0  0  0  0  0  0
   -1.6942   -3.2862    0.9733 H   0  0  0  0  0  0  0  0  0  0  0  0
   -2.8005   -3.7850   -0.3278 H   0  0  0  0  0  0  0  0  0  0  0  0
   -4.6688   -2.5727    0.8048 H   0  0  0  0  0  0  0  0  0  0  0  0
   -3.9588   -3.7941    1.8876 H   0  0  0  0  0  0  0  0  0  0  0  0
   -3.5751   -2.0675    2.0871 H   0  0  0  0  0  0  0  0  0  0  0  0
    2.2401   -1.5868   -0.6548 H   0  0  0  0  0  0  0  0  0  0  0  0
    2.7326   -0.7134    0.7766 H   0  0  0  0  0  0  0  0  0  0  0  0
    3.0617    0.6322   -1.3024 H   0  0  0  0  0  0  0  0  0  0  0  0
    1.3712    0.4829   -1.7043 H   0  0  0  0  0  0  0  0  0  0  0  0
    2.7910    1.2286    1.9939 H   0  0  0  0  0  0  0  0  0  0  0  0
    2.7675    2.9840    1.9604 H   0  0  0  0  0  0  0  0  0  0  0  0
    4.6336    1.2223    0.2828 H   0  0  0  0  0  0  0  0  0  0  0  0
    5.0680    2.2316    1.6590 H   0  0  0  0  0  0  0  0  0  0  0  0
    4.5294    2.9936    0.1583 H   0  0  0  0  0  0  0  0  0  0  0  0
  1  2  1  0
  2  3  1  0
  3  4  1  0
  4  5  2  0
  4  6  1  0
  6  7  1  0
  7  8  1  0
  4  9  1  0
  9 10  1  0
 10 11  1  0
 11 12  1  0
 12 13  1  0
 13 14  1  0
  1 15  1  0
  1 16  1  0
  1 17  1  0
  2 18  1  0
  2 19  1  0
  7 20  1  0
  7 21  1  0
  8 22  1  0
  8 23  1  0
  8 24  1  0
 10 25  1  0
 10 26  1  0
 11 27  1  0
 11 28  1  0
 13 29  1  0
 13 30  1  0
 14 31  1  0
 14 32  1  0
 14 33  1  0
M  END
>  <Energy>  (4) 
-70.00260821018074

>  <Real charge>  (4) 
0

>  <Mult>  (4) 
1

$$$$
mol_961 572
     RDKit          3D

 33 32  0  0  0  0  0  0  0  0999 V2000
   -4.1930   -2.3977   -1.7721 C   0  0  0  0  0  0  0  0  0  0  0  0
   -2.8068   -2.7612   -1.2810 C   0  0  0  0  0  0  0  0  0  0  0  0
   -2.3607   -1.7430   -0.4003 O   0  0  0  0  0  0  0  0  0  0  0  0
   -0.7636   -1.5464   -0.1626 P   0  0  0  0  0  5  0  0  0  0  0  0
    0.0763   -3.1368    0.5943 S   0  0  0  0  0  0  0  0  0  0  0  0
   -0.7982   -0.3525    0.9422 O   0  0  0  0  0  0  0  0  0  0  0  0
   -1.6086    0.7893    0.7167 C   0  0  0  0  0  0  0  0  0  0  0  0
   -1.4367    1.7403    1.8840 C   0  0  0  0  0  0  0  0  0  0  0  0
    0.0348   -0.7361   -1.9375 S   0  0  0  0  0  0  0  0  0  0  0  0
    1.8395   -0.7184   -1.6973 C   0  0  0  0  0  0  0  0  0  0  0  0
    2.3379    0.0695   -0.4831 C   0  0  0  0  0  0  0  0  0  0  0  0
    2.0092    1.8608   -0.6174 S   0  0  0  0  0  0  0  0  0  0  0  0
    2.6005    2.4008    1.0191 C   0  0  0  0  0  0  0  0  0  0  0  0
    4.1152    2.3892    1.1142 C   0  0  0  0  0  0  0  0  0  0  0  0
   -4.5816   -3.1647   -2.4478 H   0  0  0  0  0  0  0  0  0  0  0  0
   -4.8840   -2.2853   -0.9300 H   0  0  0  0  0  0  0  0  0  0  0  0
   -4.1750   -1.4381   -2.2995 H   0  0  0  0  0  0  0  0  0  0  0  0
   -2.1256   -2.8647   -2.1308 H   0  0  0  0  0  0  0  0  0  0  0  0
   -2.8407   -3.7108   -0.7386 H   0  0  0  0  0  0  0  0  0  0  0  0
   -2.6586    0.4912    0.6429 H   0  0  0  0  0  0  0  0  0  0  0  0
   -1.3142    1.2833   -0.2127 H   0  0  0  0  0  0  0  0  0  0  0  0
   -2.0476    2.6373    1.7495 H   0  0  0  0  0  0  0  0  0  0  0  0
   -0.3895    2.0394    1.9900 H   0  0  0  0  0  0  0  0  0  0  0  0
   -1.7246    1.2543    2.8221 H   0  0  0  0  0  0  0  0  0  0  0  0
    2.2962   -0.3286   -2.6139 H   0  0  0  0  0  0  0  0  0  0  0  0
    2.1683   -1.7588   -1.6051 H   0  0  0  0  0  0  0  0  0  0  0  0
    1.8938   -0.3121    0.4401 H   0  0  0  0  0  0  0  0  0  0  0  0
    3.4211   -0.0703   -0.4110 H   0  0  0  0  0  0  0  0  0  0  0  0
    2.1577    1.7706    1.7966 H   0  0  0  0  0  0  0  0  0  0  0  0
    2.2365    3.4207    1.1797 H   0  0  0  0  0  0  0  0  0  0  0  0
    4.5232    1.3777    1.0289 H   0  0  0  0  0  0  0  0  0  0  0  0
    4.4277    2.7848    2.0865 H   0  0  0  0  0  0  0  0  0  0  0  0
    4.5711    3.0161    0.3406 H   0  0  0  0  0  0  0  0  0  0  0  0
  1  2  1  0
  2  3  1  0
  3  4  1  0
  4  5  2  0
  4  6  1  0
  6  7  1  0
  7  8  1  0
  4  9  1  0
  9 10  1  0
 10 11  1  0
 11 12  1  0
 12 13  1  0
 13 14  1  0
  1 15  1  0
  1 16  1  0
  1 17  1  0
  2 18  1  0
  2 19  1  0
  7 20  1  0
  7 21  1  0
  8 22  1  0
  8 23  1  0
  8 24  1  0
 10 25  1  0
 10 26  1  0
 11 27  1  0
 11 28  1  0
 13 29  1  0
 13 30  1  0
 14 31  1  0
 14 32  1  0
 14 33  1  0
M  END
>  <Energy>  (5) 
-69.93063466428873

>  <Real charge>  (5) 
0

>  <Mult>  (5) 
1

$$$$
mol_961 211
     RDKit          3D

 33 32  0  0  0  0  0  0  0  0999 V2000
   -4.3816    1.0258   -2.0201 C   0  0  0  0  0  0  0  0  0  0  0  0
   -2.9476    1.4921   -2.1662 C   0  0  0  0  0  0  0  0  0  0  0  0
   -2.2621    1.2238   -0.9541 O   0  0  0  0  0  0  0  0  0  0  0  0
   -0.6423    1.0761   -0.9773 P   0  0  0  0  0  5  0  0  0  0  0  0
    0.2405    2.7060   -1.5873 S   0  0  0  0  0  0  0  0  0  0  0  0
   -0.3739    0.8558    0.6112 O   0  0  0  0  0  0  0  0  0  0  0  0
   -1.0349   -0.1922    1.3006 C   0  0  0  0  0  0  0  0  0  0  0  0
   -1.1353    0.1860    2.7644 C   0  0  0  0  0  0  0  0  0  0  0  0
   -0.1922   -0.7422   -1.9470 S   0  0  0  0  0  0  0  0  0  0  0  0
    1.6122   -0.7238   -2.1953 C   0  0  0  0  0  0  0  0  0  0  0  0
    2.4433   -0.6429   -0.9127 C   0  0  0  0  0  0  0  0  0  0  0  0
    2.3349   -2.1674    0.0875 S   0  0  0  0  0  0  0  0  0  0  0  0
    3.4789   -1.7269    1.4346 C   0  0  0  0  0  0  0  0  0  0  0  0
    2.8485   -0.7598    2.4199 C   0  0  0  0  0  0  0  0  0  0  0  0
   -4.4173   -0.0479   -1.8079 H   0  0  0  0  0  0  0  0  0  0  0  0
   -4.8689    1.5327   -1.1806 H   0  0  0  0  0  0  0  0  0  0  0  0
   -4.9517    1.2248   -2.9318 H   0  0  0  0  0  0  0  0  0  0  0  0
   -2.9235    2.5691   -2.3574 H   0  0  0  0  0  0  0  0  0  0  0  0
   -2.4709    0.9745   -3.0038 H   0  0  0  0  0  0  0  0  0  0  0  0
   -0.4539   -1.1114    1.1931 H   0  0  0  0  0  0  0  0  0  0  0  0
   -2.0358   -0.3642    0.8948 H   0  0  0  0  0  0  0  0  0  0  0  0
   -1.6175   -0.6085    3.3407 H   0  0  0  0  0  0  0  0  0  0  0  0
   -0.1426    0.3760    3.1851 H   0  0  0  0  0  0  0  0  0  0  0  0
   -1.7127    1.1088    2.8836 H   0  0  0  0  0  0  0  0  0  0  0  0
    1.8478    0.1376   -2.8286 H   0  0  0  0  0  0  0  0  0  0  0  0
    1.8843   -1.6154   -2.7713 H   0  0  0  0  0  0  0  0  0  0  0  0
    3.4938   -0.5067   -1.1914 H   0  0  0  0  0  0  0  0  0  0  0  0
    2.1469    0.2188   -0.3104 H   0  0  0  0  0  0  0  0  0  0  0  0
    4.4012   -1.3127    1.0155 H   0  0  0  0  0  0  0  0  0  0  0  0
    3.7446   -2.6514    1.9573 H   0  0  0  0  0  0  0  0  0  0  0  0
    3.5483   -0.5553    3.2372 H   0  0  0  0  0  0  0  0  0  0  0  0
    1.9386   -1.1782    2.8627 H   0  0  0  0  0  0  0  0  0  0  0  0
    2.6009    0.1990    1.9549 H   0  0  0  0  0  0  0  0  0  0  0  0
  1  2  1  0
  2  3  1  0
  3  4  1  0
  4  5  2  0
  4  6  1  0
  6  7  1  0
  7  8  1  0
  4  9  1  0
  9 10  1  0
 10 11  1  0
 11 12  1  0
 12 13  1  0
 13 14  1  0
  1 15  1  0
  1 16  1  0
  1 17  1  0
  2 18  1  0
  2 19  1  0
  7 20  1  0
  7 21  1  0
  8 22  1  0
  8 23  1  0
  8 24  1  0
 10 25  1  0
 10 26  1  0
 11 27  1  0
 11 28  1  0
 13 29  1  0
 13 30  1  0
 14 31  1  0
 14 32  1  0
 14 33  1  0
M  END
>  <Energy>  (6) 
-69.80429967497481

>  <Real charge>  (6) 
0

>  <Mult>  (6) 
1

$$$$
