mol_989 220
     RDKit          3D

 22 26  0  0  0  0  0  0  0  0999 V2000
    0.0669   -1.1280    2.8893 Cl  0  0  0  0  0  0  0  0  0  0  0  0
    0.0321   -0.3879    1.2818 C   0  0  0  0  0  0  0  0  0  0  0  0
   -0.0293   -1.3393   -0.0009 C   0  0  0  0  0  0  0  0  0  0  0  0
   -0.0600   -3.0925    0.2406 Cl  0  0  0  0  0  0  0  0  0  0  0  0
   -1.1400   -0.6558   -0.8817 C   0  0  0  0  0  0  0  0  0  0  0  0
   -1.9071   -1.6199   -2.1802 Cl  0  0  0  0  0  0  0  0  0  0  0  0
   -0.0321    0.3879   -1.2818 C   0  0  0  0  0  0  0  0  0  0  0  0
   -0.0669    1.1280   -2.8893 Cl  0  0  0  0  0  0  0  0  0  0  0  0
    0.0293    1.3393    0.0009 C   0  0  0  0  0  0  0  0  0  0  0  0
    0.0600    3.0925   -0.2406 Cl  0  0  0  0  0  0  0  0  0  0  0  0
   -1.0521    0.7037    0.9512 C   0  0  0  0  0  0  0  0  0  0  0  0
   -1.6927    1.6987    2.2943 Cl  0  0  0  0  0  0  0  0  0  0  0  0
   -2.1174    0.0463    0.0671 C   0  0  0  0  0  0  0  0  0  0  0  0
   -3.1252   -1.1003    0.9658 Cl  0  0  0  0  0  0  0  0  0  0  0  0
   -3.1290    1.2371   -0.7676 Cl  0  0  0  0  0  0  0  0  0  0  0  0
    1.1400    0.6558    0.8817 C   0  0  0  0  0  0  0  0  0  0  0  0
    1.9071    1.6199    2.1802 Cl  0  0  0  0  0  0  0  0  0  0  0  0
    2.1174   -0.0463   -0.0671 C   0  0  0  0  0  0  0  0  0  0  0  0
    3.1290   -1.2371    0.7676 Cl  0  0  0  0  0  0  0  0  0  0  0  0
    3.1252    1.1003   -0.9658 Cl  0  0  0  0  0  0  0  0  0  0  0  0
    1.0521   -0.7037   -0.9512 C   0  0  0  0  0  0  0  0  0  0  0  0
    1.6927   -1.6987   -2.2943 Cl  0  0  0  0  0  0  0  0  0  0  0  0
  1  2  1  0
  2  3  1  0
  3  4  1  0
  3  5  1  0
  5  6  1  0
  5  7  1  0
  7  8  1  0
  7  9  1  0
  9 10  1  0
  9 11  1  0
 11 12  1  0
 11 13  1  0
 13 14  1  0
 13 15  1  0
  2 16  1  0
 16 17  1  0
 16 18  1  0
 18 19  1  0
 18 20  1  0
 18 21  1  0
 21 22  1  0
 11  2  1  0
 21  3  1  0
 13  5  1  0
 21  7  1  0
 16  9  1  0
M  END
>  <Energy>  (1) 
2.993858350442104

>  <Real charge>  (1) 
0

>  <Mult>  (1) 
1

$$$$
