mol_1022 234
     RDKit          3D

 35 36  0  0  0  0  0  0  0  0999 V2000
   -5.7039   -1.0661    1.2967 C   0  0  0  0  0  0  0  0  0  0  0  0
   -4.6314   -0.1163    1.0497 N   0  0  0  0  0  0  0  0  0  0  0  0
   -5.0615    1.2553    0.8093 C   0  0  0  0  0  0  0  0  0  0  0  0
   -3.4294   -0.6426    0.5624 C   0  0  0  0  0  0  0  0  0  0  0  0
   -3.3100   -1.8359    0.2973 O   0  0  0  0  0  0  0  0  0  0  0  0
   -2.4195    0.2879    0.4539 N   0  0  0  0  0  0  0  0  0  0  0  0
   -1.1576    0.1119   -0.1485 C   0  0  0  0  0  0  0  0  0  0  0  0
   -0.8474   -0.9554   -0.9950 C   0  0  0  0  0  0  0  0  0  0  0  0
    0.4230   -1.0571   -1.5712 C   0  0  0  0  0  0  0  0  0  0  0  0
    1.3926   -0.0963   -1.2952 C   0  0  0  0  0  0  0  0  0  0  0  0
    2.6129   -0.2342   -1.9144 O   0  0  0  0  0  0  0  0  0  0  0  0
    3.7346   -0.1206   -1.1245 C   0  0  0  0  0  0  0  0  0  0  0  0
    4.7940    0.6298   -1.6379 C   0  0  0  0  0  0  0  0  0  0  0  0
    5.9748    0.7602   -0.9043 C   0  0  0  0  0  0  0  0  0  0  0  0
    6.0942    0.1259    0.3321 C   0  0  0  0  0  0  0  0  0  0  0  0
    7.5489    0.2869    1.2367 Cl  0  0  0  0  0  0  0  0  0  0  0  0
    5.0465   -0.6435    0.8379 C   0  0  0  0  0  0  0  0  0  0  0  0
    3.8650   -0.7745    0.1045 C   0  0  0  0  0  0  0  0  0  0  0  0
    1.0852    0.9928   -0.4799 C   0  0  0  0  0  0  0  0  0  0  0  0
   -0.1858    1.0922    0.0936 C   0  0  0  0  0  0  0  0  0  0  0  0
   -6.2435   -1.2438    0.3615 H   0  0  0  0  0  0  0  0  0  0  0  0
   -5.3080   -2.0165    1.6670 H   0  0  0  0  0  0  0  0  0  0  0  0
   -6.3862   -0.6567    2.0474 H   0  0  0  0  0  0  0  0  0  0  0  0
   -5.6338    1.6032    1.6742 H   0  0  0  0  0  0  0  0  0  0  0  0
   -4.2329    1.9429    0.6353 H   0  0  0  0  0  0  0  0  0  0  0  0
   -5.7005    1.2661   -0.0795 H   0  0  0  0  0  0  0  0  0  0  0  0
   -2.5076    1.0748    1.0770 H   0  0  0  0  0  0  0  0  0  0  0  0
   -1.5803   -1.7204   -1.2347 H   0  0  0  0  0  0  0  0  0  0  0  0
    0.6510   -1.8900   -2.2307 H   0  0  0  0  0  0  0  0  0  0  0  0
    4.6979    1.1145   -2.6059 H   0  0  0  0  0  0  0  0  0  0  0  0
    6.7951    1.3510   -1.3026 H   0  0  0  0  0  0  0  0  0  0  0  0
    5.1447   -1.1479    1.7954 H   0  0  0  0  0  0  0  0  0  0  0  0
    3.0590   -1.3914    0.4931 H   0  0  0  0  0  0  0  0  0  0  0  0
    1.8226    1.7677   -0.2911 H   0  0  0  0  0  0  0  0  0  0  0  0
   -0.4030    1.9461    0.7297 H   0  0  0  0  0  0  0  0  0  0  0  0
  1  2  1  0
  2  3  1  0
  2  4  1  0
  4  5  2  0
  4  6  1  0
  6  7  1  0
  7  8  2  0
  8  9  1  0
  9 10  2  0
 10 11  1  0
 11 12  1  0
 12 13  2  0
 13 14  1  0
 14 15  2  0
 15 16  1  0
 15 17  1  0
 17 18  2  0
 10 19  1  0
 19 20  2  0
 18 12  1  0
 20  7  1  0
  1 21  1  0
  1 22  1  0
  1 23  1  0
  3 24  1  0
  3 25  1  0
  3 26  1  0
  6 27  1  0
  8 28  1  0
  9 29  1  0
 13 30  1  0
 14 31  1  0
 17 32  1  0
 18 33  1  0
 19 34  1  0
 20 35  1  0
M  END
>  <Energy>  (1) 
-22.211734965382263

>  <Real charge>  (1) 
0

>  <Mult>  (1) 
1

$$$$
mol_1022 87
     RDKit          3D

 35 36  0  0  0  0  0  0  0  0999 V2000
    5.3150   -1.9945   -0.6456 C   0  0  0  0  0  0  0  0  0  0  0  0
    4.5703   -0.7460   -0.6291 N   0  0  0  0  0  0  0  0  0  0  0  0
    5.3575    0.4408   -0.3192 C   0  0  0  0  0  0  0  0  0  0  0  0
    3.1946   -0.8412   -0.3894 C   0  0  0  0  0  0  0  0  0  0  0  0
    2.6574   -1.9178   -0.1426 O   0  0  0  0  0  0  0  0  0  0  0  0
    2.5282    0.3597   -0.4956 N   0  0  0  0  0  0  0  0  0  0  0  0
    1.1855    0.6235   -0.1585 C   0  0  0  0  0  0  0  0  0  0  0  0
    0.4010   -0.2327    0.6183 C   0  0  0  0  0  0  0  0  0  0  0  0
   -0.9217    0.1015    0.9286 C   0  0  0  0  0  0  0  0  0  0  0  0
   -1.4691    1.2929    0.4523 C   0  0  0  0  0  0  0  0  0  0  0  0
   -2.7506    1.6953    0.7485 O   0  0  0  0  0  0  0  0  0  0  0  0
   -3.7603    0.7753    0.5785 C   0  0  0  0  0  0  0  0  0  0  0  0
   -3.8777   -0.0204   -0.5652 C   0  0  0  0  0  0  0  0  0  0  0  0
   -4.9511   -0.9058   -0.6871 C   0  0  0  0  0  0  0  0  0  0  0  0
   -5.9078   -0.9787    0.3251 C   0  0  0  0  0  0  0  0  0  0  0  0
   -7.2309   -2.0680    0.1726 Cl  0  0  0  0  0  0  0  0  0  0  0  0
   -5.8048   -0.1698    1.4565 C   0  0  0  0  0  0  0  0  0  0  0  0
   -4.7317    0.7150    1.5794 C   0  0  0  0  0  0  0  0  0  0  0  0
   -0.6852    2.1702   -0.2933 C   0  0  0  0  0  0  0  0  0  0  0  0
    0.6362    1.8343   -0.6006 C   0  0  0  0  0  0  0  0  0  0  0  0
    4.7170   -2.8015   -1.0795 H   0  0  0  0  0  0  0  0  0  0  0  0
    6.2205   -1.8698   -1.2466 H   0  0  0  0  0  0  0  0  0  0  0  0
    5.5840   -2.2614    0.3810 H   0  0  0  0  0  0  0  0  0  0  0  0
    4.7709    1.3604   -0.3232 H   0  0  0  0  0  0  0  0  0  0  0  0
    5.7865    0.3192    0.6806 H   0  0  0  0  0  0  0  0  0  0  0  0
    6.1633    0.5324   -1.0532 H   0  0  0  0  0  0  0  0  0  0  0  0
    2.9757    1.0343   -1.0954 H   0  0  0  0  0  0  0  0  0  0  0  0
    0.7976   -1.1651    1.0098 H   0  0  0  0  0  0  0  0  0  0  0  0
   -1.5082   -0.5722    1.5471 H   0  0  0  0  0  0  0  0  0  0  0  0
   -3.1444    0.0445   -1.3646 H   0  0  0  0  0  0  0  0  0  0  0  0
   -5.0367   -1.5296   -1.5728 H   0  0  0  0  0  0  0  0  0  0  0  0
   -6.5548   -0.2208    2.2411 H   0  0  0  0  0  0  0  0  0  0  0  0
   -4.6497    1.3526    2.4557 H   0  0  0  0  0  0  0  0  0  0  0  0
   -1.1025    3.1119   -0.6390 H   0  0  0  0  0  0  0  0  0  0  0  0
    1.2259    2.5314   -1.1896 H   0  0  0  0  0  0  0  0  0  0  0  0
  1  2  1  0
  2  3  1  0
  2  4  1  0
  4  5  2  0
  4  6  1  0
  6  7  1  0
  7  8  2  0
  8  9  1  0
  9 10  2  0
 10 11  1  0
 11 12  1  0
 12 13  2  0
 13 14  1  0
 14 15  2  0
 15 16  1  0
 15 17  1  0
 17 18  2  0
 10 19  1  0
 19 20  2  0
 18 12  1  0
 20  7  1  0
  1 21  1  0
  1 22  1  0
  1 23  1  0
  3 24  1  0
  3 25  1  0
  3 26  1  0
  6 27  1  0
  8 28  1  0
  9 29  1  0
 13 30  1  0
 14 31  1  0
 17 32  1  0
 18 33  1  0
 19 34  1  0
 20 35  1  0
M  END
>  <Energy>  (2) 
-22.186499057098697

>  <Real charge>  (2) 
0

>  <Mult>  (2) 
1

$$$$
mol_1022 75
     RDKit          3D

 35 36  0  0  0  0  0  0  0  0999 V2000
   -5.9754    0.3289    0.8162 C   0  0  0  0  0  0  0  0  0  0  0  0
   -4.7537   -0.2477    0.2789 N   0  0  0  0  0  0  0  0  0  0  0  0
   -4.7451   -1.7019    0.1821 C   0  0  0  0  0  0  0  0  0  0  0  0
   -3.5927    0.5257    0.3931 C   0  0  0  0  0  0  0  0  0  0  0  0
   -3.5942    1.6037    0.9814 O   0  0  0  0  0  0  0  0  0  0  0  0
   -2.4971   -0.0214   -0.2376 N   0  0  0  0  0  0  0  0  0  0  0  0
   -1.1617    0.4252   -0.1764 C   0  0  0  0  0  0  0  0  0  0  0  0
   -0.6960    1.3497    0.7616 C   0  0  0  0  0  0  0  0  0  0  0  0
    0.6494    1.7323    0.7724 C   0  0  0  0  0  0  0  0  0  0  0  0
    1.5415    1.1737   -0.1396 C   0  0  0  0  0  0  0  0  0  0  0  0
    2.8437    1.6149   -0.0978 O   0  0  0  0  0  0  0  0  0  0  0  0
    3.8331    0.6585   -0.1239 C   0  0  0  0  0  0  0  0  0  0  0  0
    4.9186    0.8944   -0.9693 C   0  0  0  0  0  0  0  0  0  0  0  0
    5.9729   -0.0196   -1.0197 C   0  0  0  0  0  0  0  0  0  0  0  0
    5.9419   -1.1561   -0.2118 C   0  0  0  0  0  0  0  0  0  0  0  0
    7.2406   -2.2830   -0.2739 Cl  0  0  0  0  0  0  0  0  0  0  0  0
    4.8697   -1.3831    0.6512 C   0  0  0  0  0  0  0  0  0  0  0  0
    3.8147   -0.4694    0.7021 C   0  0  0  0  0  0  0  0  0  0  0  0
    1.0871    0.2591   -1.0897 C   0  0  0  0  0  0  0  0  0  0  0  0
   -0.2584   -0.1205   -1.0987 C   0  0  0  0  0  0  0  0  0  0  0  0
   -5.9949    1.4129    0.6694 H   0  0  0  0  0  0  0  0  0  0  0  0
   -6.8385   -0.1077    0.3052 H   0  0  0  0  0  0  0  0  0  0  0  0
   -6.0291    0.1124    1.8875 H   0  0  0  0  0  0  0  0  0  0  0  0
   -3.8123   -2.1027   -0.2165 H   0  0  0  0  0  0  0  0  0  0  0  0
   -5.5706   -2.0178   -0.4622 H   0  0  0  0  0  0  0  0  0  0  0  0
   -4.8869   -2.1155    1.1857 H   0  0  0  0  0  0  0  0  0  0  0  0
   -2.7201   -0.6477   -0.9947 H   0  0  0  0  0  0  0  0  0  0  0  0
   -1.3578    1.7902    1.5015 H   0  0  0  0  0  0  0  0  0  0  0  0
    0.9964    2.4619    1.4992 H   0  0  0  0  0  0  0  0  0  0  0  0
    4.9405    1.7864   -1.5898 H   0  0  0  0  0  0  0  0  0  0  0  0
    6.8132    0.1622   -1.6842 H   0  0  0  0  0  0  0  0  0  0  0  0
    4.8525   -2.2622    1.2897 H   0  0  0  0  0  0  0  0  0  0  0  0
    2.9907   -0.6389    1.3901 H   0  0  0  0  0  0  0  0  0  0  0  0
    1.7674   -0.1567   -1.8274 H   0  0  0  0  0  0  0  0  0  0  0  0
   -0.5893   -0.8402   -1.8426 H   0  0  0  0  0  0  0  0  0  0  0  0
  1  2  1  0
  2  3  1  0
  2  4  1  0
  4  5  2  0
  4  6  1  0
  6  7  1  0
  7  8  2  0
  8  9  1  0
  9 10  2  0
 10 11  1  0
 11 12  1  0
 12 13  2  0
 13 14  1  0
 14 15  2  0
 15 16  1  0
 15 17  1  0
 17 18  2  0
 10 19  1  0
 19 20  2  0
 18 12  1  0
 20  7  1  0
  1 21  1  0
  1 22  1  0
  1 23  1  0
  3 24  1  0
  3 25  1  0
  3 26  1  0
  6 27  1  0
  8 28  1  0
  9 29  1  0
 13 30  1  0
 14 31  1  0
 17 32  1  0
 18 33  1  0
 19 34  1  0
 20 35  1  0
M  END
>  <Energy>  (3) 
-22.07255602073972

>  <Real charge>  (3) 
0

>  <Mult>  (3) 
1

$$$$
mol_1022 174
     RDKit          3D

 35 36  0  0  0  0  0  0  0  0999 V2000
    5.6652   -0.4567    1.3218 C   0  0  0  0  0  0  0  0  0  0  0  0
    4.6775    0.1523    0.4458 N   0  0  0  0  0  0  0  0  0  0  0  0
    4.9366    1.5420    0.0914 C   0  0  0  0  0  0  0  0  0  0  0  0
    3.3991   -0.4175    0.4512 C   0  0  0  0  0  0  0  0  0  0  0  0
    3.1096   -1.3389    1.2098 O   0  0  0  0  0  0  0  0  0  0  0  0
    2.5447    0.1271   -0.4820 N   0  0  0  0  0  0  0  0  0  0  0  0
    1.1630   -0.1136   -0.6218 C   0  0  0  0  0  0  0  0  0  0  0  0
    0.3848   -0.7480    0.3496 C   0  0  0  0  0  0  0  0  0  0  0  0
   -0.9871   -0.9374    0.1490 C   0  0  0  0  0  0  0  0  0  0  0  0
   -1.5920   -0.4693   -1.0176 C   0  0  0  0  0  0  0  0  0  0  0  0
   -2.9273   -0.6529   -1.2925 O   0  0  0  0  0  0  0  0  0  0  0  0
   -3.8265   -0.3548   -0.2943 C   0  0  0  0  0  0  0  0  0  0  0  0
   -3.7823    0.8406    0.4294 C   0  0  0  0  0  0  0  0  0  0  0  0
   -4.7501    1.0977    1.4030 C   0  0  0  0  0  0  0  0  0  0  0  0
   -5.7633    0.1676    1.6355 C   0  0  0  0  0  0  0  0  0  0  0  0
   -6.9560    0.4866    2.8340 Cl  0  0  0  0  0  0  0  0  0  0  0  0
   -5.8218   -1.0154    0.8990 C   0  0  0  0  0  0  0  0  0  0  0  0
   -4.8545   -1.2732   -0.0743 C   0  0  0  0  0  0  0  0  0  0  0  0
   -0.8235    0.1534   -1.9982 C   0  0  0  0  0  0  0  0  0  0  0  0
    0.5467    0.3402   -1.7956 C   0  0  0  0  0  0  0  0  0  0  0  0
    5.5621   -0.0300    2.3241 H   0  0  0  0  0  0  0  0  0  0  0  0
    6.6680   -0.2558    0.9338 H   0  0  0  0  0  0  0  0  0  0  0  0
    5.5238   -1.5402    1.3784 H   0  0  0  0  0  0  0  0  0  0  0  0
    4.9621    2.1341    1.0119 H   0  0  0  0  0  0  0  0  0  0  0  0
    5.9074    1.6040   -0.4088 H   0  0  0  0  0  0  0  0  0  0  0  0
    4.1749    1.9704   -0.5614 H   0  0  0  0  0  0  0  0  0  0  0  0
    3.0039    0.5438   -1.2761 H   0  0  0  0  0  0  0  0  0  0  0  0
    0.8187   -1.1082    1.2779 H   0  0  0  0  0  0  0  0  0  0  0  0
   -1.5669   -1.4554    0.9079 H   0  0  0  0  0  0  0  0  0  0  0  0
   -3.0047    1.5753    0.2391 H   0  0  0  0  0  0  0  0  0  0  0  0
   -4.7111    2.0236    1.9704 H   0  0  0  0  0  0  0  0  0  0  0  0
   -6.6159   -1.7359    1.0745 H   0  0  0  0  0  0  0  0  0  0  0  0
   -4.8982   -2.1901   -0.6563 H   0  0  0  0  0  0  0  0  0  0  0  0
   -1.2900    0.4970   -2.9173 H   0  0  0  0  0  0  0  0  0  0  0  0
    1.1232    0.8373   -2.5709 H   0  0  0  0  0  0  0  0  0  0  0  0
  1  2  1  0
  2  3  1  0
  2  4  1  0
  4  5  2  0
  4  6  1  0
  6  7  1  0
  7  8  2  0
  8  9  1  0
  9 10  2  0
 10 11  1  0
 11 12  1  0
 12 13  2  0
 13 14  1  0
 14 15  2  0
 15 16  1  0
 15 17  1  0
 17 18  2  0
 10 19  1  0
 19 20  2  0
 18 12  1  0
 20  7  1  0
  1 21  1  0
  1 22  1  0
  1 23  1  0
  3 24  1  0
  3 25  1  0
  3 26  1  0
  6 27  1  0
  8 28  1  0
  9 29  1  0
 13 30  1  0
 14 31  1  0
 17 32  1  0
 18 33  1  0
 19 34  1  0
 20 35  1  0
M  END
>  <Energy>  (4) 
-22.057895975746693

>  <Real charge>  (4) 
0

>  <Mult>  (4) 
1

$$$$
