mol_737 24
     RDKit          3D

 33 36  0  0  0  0  0  0  0  0999 V2000
    3.5513    1.8793    0.0925 C   0  0  0  0  0  0  0  0  0  0  0  0
    4.5894    0.9657    0.1971 C   0  0  0  0  0  0  0  0  0  0  0  0
    4.2854   -0.3783    0.2686 C   0  0  0  0  0  0  0  0  0  0  0  0
    2.9477   -0.7968    0.2146 C   0  0  0  0  0  0  0  0  0  0  0  0
    1.8393    0.0877    0.0730 C   0  0  0  0  0  0  0  0  0  0  0  0
    0.4090   -0.2874   -0.0171 C   0  0  0  0  0  0  0  0  0  0  0  0
   -0.1242   -1.6215   -0.1123 C   0  0  0  0  0  0  0  0  0  0  0  0
    0.7121   -2.8702   -0.2496 C   0  0  0  0  0  0  0  0  0  0  0  0
   -1.5129   -1.8609   -0.1062 C   0  0  0  0  0  0  0  0  0  0  0  0
   -2.4433   -0.8333   -0.0576 C   0  0  0  0  0  0  0  0  0  0  0  0
   -3.8156   -1.1486   -0.0555 C   0  0  0  0  0  0  0  0  0  0  0  0
   -4.7835   -0.1517   -0.0220 C   0  0  0  0  0  0  0  0  0  0  0  0
   -4.3852    1.1724    0.0091 C   0  0  0  0  0  0  0  0  0  0  0  0
   -3.0215    1.4880    0.0071 C   0  0  0  0  0  0  0  0  0  0  0  0
   -1.9948    0.4991   -0.0264 C   0  0  0  0  0  0  0  0  0  0  0  0
   -0.5704    0.7654   -0.0237 C   0  0  0  0  0  0  0  0  0  0  0  0
   -0.1108    2.0962   -0.0346 C   0  0  0  0  0  0  0  0  0  0  0  0
    1.2346    2.4371   -0.0208 C   0  0  0  0  0  0  0  0  0  0  0  0
    2.2091    1.4582    0.0444 C   0  0  0  0  0  0  0  0  0  0  0  0
    3.7994    2.9387    0.0569 H   0  0  0  0  0  0  0  0  0  0  0  0
    5.6203    1.3038    0.2378 H   0  0  0  0  0  0  0  0  0  0  0  0
    5.0788   -1.1137    0.3746 H   0  0  0  0  0  0  0  0  0  0  0  0
    2.8096   -1.8628    0.3192 H   0  0  0  0  0  0  0  0  0  0  0  0
    1.4474   -2.7585   -1.0518 H   0  0  0  0  0  0  0  0  0  0  0  0
    1.1826   -3.1222    0.7050 H   0  0  0  0  0  0  0  0  0  0  0  0
    0.1052   -3.7375   -0.5364 H   0  0  0  0  0  0  0  0  0  0  0  0
   -1.8718   -2.8891   -0.1536 H   0  0  0  0  0  0  0  0  0  0  0  0
   -4.1418   -2.1866   -0.0820 H   0  0  0  0  0  0  0  0  0  0  0  0
   -5.8383   -0.4104   -0.0206 H   0  0  0  0  0  0  0  0  0  0  0  0
   -5.1264    1.9666    0.0371 H   0  0  0  0  0  0  0  0  0  0  0  0
   -2.7799    2.5459    0.0403 H   0  0  0  0  0  0  0  0  0  0  0  0
   -0.8013    2.9334   -0.0662 H   0  0  0  0  0  0  0  0  0  0  0  0
    1.5005    3.4921   -0.0411 H   0  0  0  0  0  0  0  0  0  0  0  0
  1  2  2  0
  2  3  1  0
  3  4  2  0
  4  5  1  0
  5  6  2  0
  6  7  1  0
  7  8  1  0
  7  9  2  0
  9 10  1  0
 10 11  2  0
 11 12  1  0
 12 13  2  0
 13 14  1  0
 14 15  2  0
 15 16  1  0
 16 17  2  0
 17 18  1  0
 18 19  2  0
 19  1  1  0
 19  5  1  0
 16  6  1  0
 15 10  1  0
  1 20  1  0
  2 21  1  0
  3 22  1  0
  4 23  1  0
  8 24  1  0
  8 25  1  0
  8 26  1  0
  9 27  1  0
 11 28  1  0
 12 29  1  0
 13 30  1  0
 14 31  1  0
 17 32  1  0
 18 33  1  0
M  END
>  <Energy>  (1) 
88.14682551025615

>  <Real charge>  (1) 
0

>  <Mult>  (1) 
1

$$$$
