mol_682 288
     RDKit          3D

 29 29  0  0  0  0  0  0  0  0999 V2000
   -1.7738    3.3898    0.1001 C   0  0  0  0  0  0  0  0  0  0  0  0
   -1.5045    2.2416   -0.8508 C   0  0  0  0  0  0  0  0  0  0  0  0
   -0.6319    1.3252   -0.2141 O   0  0  0  0  0  0  0  0  0  0  0  0
   -0.4251   -0.1350   -0.8830 P   0  0  0  0  0  5  0  0  0  0  0  0
    0.1279   -0.2266   -2.7443 S   0  0  0  0  0  0  0  0  0  0  0  0
   -1.8822   -0.7876   -0.5789 O   0  0  0  0  0  0  0  0  0  0  0  0
   -2.0790   -2.1654   -0.8506 C   0  0  0  0  0  0  0  0  0  0  0  0
   -3.3338   -2.6224   -0.1352 C   0  0  0  0  0  0  0  0  0  0  0  0
    0.4745   -0.9059    0.2115 O   0  0  0  0  0  0  0  0  0  0  0  0
    1.7601   -0.5325    0.4964 C   0  0  0  0  0  0  0  0  0  0  0  0
    2.2248    0.6029   -0.0595 N   0  0  0  0  0  0  0  0  0  0  0  0
    3.4975    0.9552    0.2438 C   0  0  0  0  0  0  0  0  0  0  0  0
    3.9802    2.4208   -0.5148 Cl  0  0  0  0  0  0  0  0  0  0  0  0
    4.3296    0.2199    1.0828 C   0  0  0  0  0  0  0  0  0  0  0  0
    5.9445    0.6836    1.4595 Cl  0  0  0  0  0  0  0  0  0  0  0  0
    3.8209   -0.9497    1.6448 C   0  0  0  0  0  0  0  0  0  0  0  0
    2.5145   -1.3345    1.3500 C   0  0  0  0  0  0  0  0  0  0  0  0
    1.8856   -2.7800    2.0426 Cl  0  0  0  0  0  0  0  0  0  0  0  0
   -2.2309    3.0243    1.0256 H   0  0  0  0  0  0  0  0  0  0  0  0
   -2.4408    4.1265   -0.3562 H   0  0  0  0  0  0  0  0  0  0  0  0
   -0.8386    3.8855    0.3810 H   0  0  0  0  0  0  0  0  0  0  0  0
   -1.0313    2.6177   -1.7627 H   0  0  0  0  0  0  0  0  0  0  0  0
   -2.4442    1.7467   -1.1149 H   0  0  0  0  0  0  0  0  0  0  0  0
   -2.1929   -2.3072   -1.9293 H   0  0  0  0  0  0  0  0  0  0  0  0
   -1.2196   -2.7480   -0.5044 H   0  0  0  0  0  0  0  0  0  0  0  0
   -4.2002   -2.0397   -0.4653 H   0  0  0  0  0  0  0  0  0  0  0  0
   -3.2390   -2.4683    0.9448 H   0  0  0  0  0  0  0  0  0  0  0  0
   -3.5276   -3.6818   -0.3250 H   0  0  0  0  0  0  0  0  0  0  0  0
    4.4354   -1.5551    2.3061 H   0  0  0  0  0  0  0  0  0  0  0  0
  1  2  1  0
  2  3  1  0
  3  4  1  0
  4  5  2  0
  4  6  1  0
  6  7  1  0
  7  8  1  0
  4  9  1  0
  9 10  1  0
 10 11  2  0
 11 12  1  0
 12 13  1  0
 12 14  2  0
 14 15  1  0
 14 16  1  0
 16 17  2  0
 17 18  1  0
 17 10  1  0
  1 19  1  0
  1 20  1  0
  1 21  1  0
  2 22  1  0
  2 23  1  0
  7 24  1  0
  7 25  1  0
  8 26  1  0
  8 27  1  0
  8 28  1  0
 16 29  1  0
M  END
>  <Energy>  (1) 
-51.99172214738997

>  <Real charge>  (1) 
0

>  <Mult>  (1) 
1

$$$$
mol_682 461
     RDKit          3D

 29 29  0  0  0  0  0  0  0  0999 V2000
   -3.4668   -2.5586   -0.5400 C   0  0  0  0  0  0  0  0  0  0  0  0
   -2.6341   -1.4047   -1.0597 C   0  0  0  0  0  0  0  0  0  0  0  0
   -2.0664   -0.7243    0.0475 O   0  0  0  0  0  0  0  0  0  0  0  0
   -0.8317    0.2983   -0.2192 P   0  0  0  0  0  5  0  0  0  0  0  0
   -1.2521    1.7911   -1.3913 S   0  0  0  0  0  0  0  0  0  0  0  0
   -0.4077    0.6221    1.3087 O   0  0  0  0  0  0  0  0  0  0  0  0
   -1.3174    1.3138    2.1453 C   0  0  0  0  0  0  0  0  0  0  0  0
   -0.6378    2.5557    2.6842 C   0  0  0  0  0  0  0  0  0  0  0  0
    0.3104   -0.7362   -0.6961 O   0  0  0  0  0  0  0  0  0  0  0  0
    1.6218   -0.3668   -0.8279 C   0  0  0  0  0  0  0  0  0  0  0  0
    1.9776    0.8588   -0.3973 N   0  0  0  0  0  0  0  0  0  0  0  0
    3.2823    1.1986   -0.5300 C   0  0  0  0  0  0  0  0  0  0  0  0
    3.6207    2.7784    0.0585 Cl  0  0  0  0  0  0  0  0  0  0  0  0
    4.2521    0.3631   -1.0761 C   0  0  0  0  0  0  0  0  0  0  0  0
    5.9072    0.8100   -1.2355 Cl  0  0  0  0  0  0  0  0  0  0  0  0
    3.8549   -0.9001   -1.5118 C   0  0  0  0  0  0  0  0  0  0  0  0
    2.5188   -1.2750   -1.3857 C   0  0  0  0  0  0  0  0  0  0  0  0
    2.0271   -2.8346   -1.9244 Cl  0  0  0  0  0  0  0  0  0  0  0  0
   -4.2533   -2.1961    0.1303 H   0  0  0  0  0  0  0  0  0  0  0  0
   -2.8470   -3.2498    0.0408 H   0  0  0  0  0  0  0  0  0  0  0  0
   -3.9307   -3.1077   -1.3641 H   0  0  0  0  0  0  0  0  0  0  0  0
   -1.8461   -1.7812   -1.7193 H   0  0  0  0  0  0  0  0  0  0  0  0
   -3.2674   -0.7123   -1.6221 H   0  0  0  0  0  0  0  0  0  0  0  0
   -2.2337    1.5815    1.6100 H   0  0  0  0  0  0  0  0  0  0  0  0
   -1.5926    0.6480    2.9689 H   0  0  0  0  0  0  0  0  0  0  0  0
   -0.3378    3.2183    1.8658 H   0  0  0  0  0  0  0  0  0  0  0  0
   -1.3035    3.1044    3.3563 H   0  0  0  0  0  0  0  0  0  0  0  0
    0.2744    2.2909    3.2289 H   0  0  0  0  0  0  0  0  0  0  0  0
    4.5789   -1.5856   -1.9445 H   0  0  0  0  0  0  0  0  0  0  0  0
  1  2  1  0
  2  3  1  0
  3  4  1  0
  4  5  2  0
  4  6  1  0
  6  7  1  0
  7  8  1  0
  4  9  1  0
  9 10  1  0
 10 11  2  0
 11 12  1  0
 12 13  1  0
 12 14  2  0
 14 15  1  0
 14 16  1  0
 16 17  2  0
 17 18  1  0
 17 10  1  0
  1 19  1  0
  1 20  1  0
  1 21  1  0
  2 22  1  0
  2 23  1  0
  7 24  1  0
  7 25  1  0
  8 26  1  0
  8 27  1  0
  8 28  1  0
 16 29  1  0
M  END
>  <Energy>  (2) 
-51.45173919999765

>  <Real charge>  (2) 
0

>  <Mult>  (2) 
1

$$$$
mol_682 436
     RDKit          3D

 29 29  0  0  0  0  0  0  0  0999 V2000
   -3.1385   -2.4252    0.9391 C   0  0  0  0  0  0  0  0  0  0  0  0
   -1.7785   -1.8221    0.6543 C   0  0  0  0  0  0  0  0  0  0  0  0
   -1.7894   -1.2857   -0.6578 O   0  0  0  0  0  0  0  0  0  0  0  0
   -0.6093   -0.2632   -1.1073 P   0  0  0  0  0  5  0  0  0  0  0  0
   -0.6687    0.1697   -2.9986 S   0  0  0  0  0  0  0  0  0  0  0  0
   -0.8152    0.9312   -0.0328 O   0  0  0  0  0  0  0  0  0  0  0  0
   -1.9342    1.7877   -0.1851 C   0  0  0  0  0  0  0  0  0  0  0  0
   -2.1386    2.5457    1.1103 C   0  0  0  0  0  0  0  0  0  0  0  0
    0.6975   -1.0374   -0.5636 O   0  0  0  0  0  0  0  0  0  0  0  0
    1.9394   -0.4618   -0.5729 C   0  0  0  0  0  0  0  0  0  0  0  0
    2.0186    0.8578   -0.8308 N   0  0  0  0  0  0  0  0  0  0  0  0
    3.2574    1.4068   -0.8299 C   0  0  0  0  0  0  0  0  0  0  0  0
    3.2369    3.0928   -1.1669 Cl  0  0  0  0  0  0  0  0  0  0  0  0
    4.4247    0.6935   -0.5740 C   0  0  0  0  0  0  0  0  0  0  0  0
    5.9909    1.4087   -0.5712 Cl  0  0  0  0  0  0  0  0  0  0  0  0
    4.3104   -0.6686   -0.3009 C   0  0  0  0  0  0  0  0  0  0  0  0
    3.0481   -1.2587   -0.2967 C   0  0  0  0  0  0  0  0  0  0  0  0
    2.9048   -2.9391    0.0490 Cl  0  0  0  0  0  0  0  0  0  0  0  0
   -3.1705   -2.8603    1.9419 H   0  0  0  0  0  0  0  0  0  0  0  0
   -3.9214   -1.6637    0.8590 H   0  0  0  0  0  0  0  0  0  0  0  0
   -3.3762   -3.2047    0.2077 H   0  0  0  0  0  0  0  0  0  0  0  0
   -1.0062   -2.5946    0.7185 H   0  0  0  0  0  0  0  0  0  0  0  0
   -1.5581   -1.0399    1.3867 H   0  0  0  0  0  0  0  0  0  0  0  0
   -2.8289    1.2026   -0.4202 H   0  0  0  0  0  0  0  0  0  0  0  0
   -1.7413    2.4897   -1.0018 H   0  0  0  0  0  0  0  0  0  0  0  0
   -2.3132    1.8514    1.9390 H   0  0  0  0  0  0  0  0  0  0  0  0
   -2.9912    3.2263    1.0343 H   0  0  0  0  0  0  0  0  0  0  0  0
   -1.2447    3.1253    1.3635 H   0  0  0  0  0  0  0  0  0  0  0  0
    5.1954   -1.2642   -0.0926 H   0  0  0  0  0  0  0  0  0  0  0  0
  1  2  1  0
  2  3  1  0
  3  4  1  0
  4  5  2  0
  4  6  1  0
  6  7  1  0
  7  8  1  0
  4  9  1  0
  9 10  1  0
 10 11  2  0
 11 12  1  0
 12 13  1  0
 12 14  2  0
 14 15  1  0
 14 16  1  0
 16 17  2  0
 17 18  1  0
 17 10  1  0
  1 19  1  0
  1 20  1  0
  1 21  1  0
  2 22  1  0
  2 23  1  0
  7 24  1  0
  7 25  1  0
  8 26  1  0
  8 27  1  0
  8 28  1  0
 16 29  1  0
M  END
>  <Energy>  (3) 
-51.44840418885371

>  <Real charge>  (3) 
0

>  <Mult>  (3) 
1

$$$$
mol_682 344
     RDKit          3D

 29 29  0  0  0  0  0  0  0  0999 V2000
   -2.0882    2.8993    1.0272 C   0  0  0  0  0  0  0  0  0  0  0  0
   -1.6991    2.2803   -0.2994 C   0  0  0  0  0  0  0  0  0  0  0  0
   -0.8091    1.2060   -0.0498 O   0  0  0  0  0  0  0  0  0  0  0  0
   -0.5461    0.1333   -1.2350 P   0  0  0  0  0  5  0  0  0  0  0  0
   -0.0856    0.7933   -3.0014 S   0  0  0  0  0  0  0  0  0  0  0  0
   -1.9445   -0.6923   -1.2153 O   0  0  0  0  0  0  0  0  0  0  0  0
   -2.3888   -1.2962   -0.0120 C   0  0  0  0  0  0  0  0  0  0  0  0
   -2.4308   -2.7984   -0.2021 C   0  0  0  0  0  0  0  0  0  0  0  0
    0.4527   -0.9395   -0.5611 O   0  0  0  0  0  0  0  0  0  0  0  0
    1.7362   -0.6181   -0.2113 C   0  0  0  0  0  0  0  0  0  0  0  0
    2.0858    0.6825   -0.2302 N   0  0  0  0  0  0  0  0  0  0  0  0
    3.3599    0.9773    0.1245 C   0  0  0  0  0  0  0  0  0  0  0  0
    3.6921    2.6634    0.0671 Cl  0  0  0  0  0  0  0  0  0  0  0  0
    4.3015    0.0261    0.5061 C   0  0  0  0  0  0  0  0  0  0  0  0
    5.9153    0.4193    0.9596 Cl  0  0  0  0  0  0  0  0  0  0  0  0
    3.9077   -1.3109    0.5254 C   0  0  0  0  0  0  0  0  0  0  0  0
    2.6033   -1.6418    0.1640 C   0  0  0  0  0  0  0  0  0  0  0  0
    2.1129   -3.2917    0.1962 Cl  0  0  0  0  0  0  0  0  0  0  0  0
   -2.5729    2.1575    1.6706 H   0  0  0  0  0  0  0  0  0  0  0  0
   -2.7719    3.7401    0.8804 H   0  0  0  0  0  0  0  0  0  0  0  0
   -1.2012    3.2540    1.5625 H   0  0  0  0  0  0  0  0  0  0  0  0
   -1.1981    3.0243   -0.9257 H   0  0  0  0  0  0  0  0  0  0  0  0
   -2.5922    1.9186   -0.8188 H   0  0  0  0  0  0  0  0  0  0  0  0
   -3.3915   -0.9158    0.2054 H   0  0  0  0  0  0  0  0  0  0  0  0
   -1.7422   -1.0382    0.8326 H   0  0  0  0  0  0  0  0  0  0  0  0
   -1.4352   -3.1859   -0.4415 H   0  0  0  0  0  0  0  0  0  0  0  0
   -3.0849   -3.0634   -1.0392 H   0  0  0  0  0  0  0  0  0  0  0  0
   -2.7946   -3.2959    0.7012 H   0  0  0  0  0  0  0  0  0  0  0  0
    4.6093   -2.0870    0.8198 H   0  0  0  0  0  0  0  0  0  0  0  0
  1  2  1  0
  2  3  1  0
  3  4  1  0
  4  5  2  0
  4  6  1  0
  6  7  1  0
  7  8  1  0
  4  9  1  0
  9 10  1  0
 10 11  2  0
 11 12  1  0
 12 13  1  0
 12 14  2  0
 14 15  1  0
 14 16  1  0
 16 17  2  0
 17 18  1  0
 17 10  1  0
  1 19  1  0
  1 20  1  0
  1 21  1  0
  2 22  1  0
  2 23  1  0
  7 24  1  0
  7 25  1  0
  8 26  1  0
  8 27  1  0
  8 28  1  0
 16 29  1  0
M  END
>  <Energy>  (4) 
-51.06793636092719

>  <Real charge>  (4) 
0

>  <Mult>  (4) 
1

$$$$
