mol_845 500
     RDKit          3D

 45 48  0  0  0  0  0  0  0  0999 V2000
   -2.2608    0.4751   -2.2490 C   0  0  0  0  0  0  0  0  0  0  0  0
   -2.1427    0.6076   -0.7219 C   0  0  0  0  0  0  0  0  0  0  0  0
   -1.2765    1.8394   -0.3741 C   0  0  0  0  0  0  0  0  0  0  0  0
    0.2221    1.6165   -0.5950 C   0  0  0  0  0  0  0  0  0  0  0  0
    0.7387    0.3915    0.1856 C   0  0  0  0  0  0  0  0  0  0  0  0
   -0.0722   -0.8559   -0.2454 C   0  0  0  0  0  0  0  0  0  0  0  0
    0.4557   -2.0934    0.4848 C   0  0  0  0  0  0  0  0  0  0  0  0
    1.8867   -2.3802    0.0432 C   0  0  0  0  0  0  0  0  0  0  0  0
    2.7700   -1.1569    0.0433 C   0  0  0  0  0  0  0  0  0  0  0  0
    4.1598   -1.3522   -0.0341 C   0  0  0  0  0  0  0  0  0  0  0  0
    5.0235   -0.2665   -0.0454 C   0  0  0  0  0  0  0  0  0  0  0  0
    6.3617   -0.5161   -0.1165 O   0  0  0  0  0  0  0  0  0  0  0  0
    4.5295    1.0267    0.0218 C   0  0  0  0  0  0  0  0  0  0  0  0
    3.1486    1.2322    0.0885 C   0  0  0  0  0  0  0  0  0  0  0  0
    2.2444    0.1535    0.0726 C   0  0  0  0  0  0  0  0  0  0  0  0
   -1.5916   -0.6815   -0.0714 C   0  0  0  0  0  0  0  0  0  0  0  0
   -2.1039   -0.6427    1.3844 C   0  0  0  0  0  0  0  0  0  0  0  0
   -3.3137    0.2966    1.3836 C   0  0  0  0  0  0  0  0  0  0  0  0
   -4.4730   -0.3328    1.9157 O   0  0  0  0  0  0  0  0  0  0  0  0
   -3.5450    0.6718   -0.0867 C   0  0  0  0  0  0  0  0  0  0  0  0
   -4.1468    1.9523   -0.2070 O   0  0  0  0  0  0  0  0  0  0  0  0
   -2.8748   -0.3892   -2.5263 H   0  0  0  0  0  0  0  0  0  0  0  0
   -1.2849    0.3452   -2.7264 H   0  0  0  0  0  0  0  0  0  0  0  0
   -2.7301    1.3642   -2.6846 H   0  0  0  0  0  0  0  0  0  0  0  0
   -1.4181    2.1257    0.6754 H   0  0  0  0  0  0  0  0  0  0  0  0
   -1.5993    2.7066   -0.9642 H   0  0  0  0  0  0  0  0  0  0  0  0
    0.4389    1.5038   -1.6642 H   0  0  0  0  0  0  0  0  0  0  0  0
    0.7330    2.5303   -0.2734 H   0  0  0  0  0  0  0  0  0  0  0  0
    0.5606    0.5778    1.2537 H   0  0  0  0  0  0  0  0  0  0  0  0
    0.1029   -1.0153   -1.3205 H   0  0  0  0  0  0  0  0  0  0  0  0
   -0.1687   -2.9688    0.2710 H   0  0  0  0  0  0  0  0  0  0  0  0
    0.4294   -1.9366    1.5705 H   0  0  0  0  0  0  0  0  0  0  0  0
    2.3101   -3.1461    0.7043 H   0  0  0  0  0  0  0  0  0  0  0  0
    1.8766   -2.7916   -0.9742 H   0  0  0  0  0  0  0  0  0  0  0  0
    4.5725   -2.3571   -0.0819 H   0  0  0  0  0  0  0  0  0  0  0  0
    6.8325    0.3330   -0.1267 H   0  0  0  0  0  0  0  0  0  0  0  0
    5.1937    1.8848    0.0287 H   0  0  0  0  0  0  0  0  0  0  0  0
    2.7949    2.2567    0.1631 H   0  0  0  0  0  0  0  0  0  0  0  0
   -2.0774   -1.5465   -0.5485 H   0  0  0  0  0  0  0  0  0  0  0  0
   -1.3477   -0.2462    2.0693 H   0  0  0  0  0  0  0  0  0  0  0  0
   -2.3576   -1.6499    1.7332 H   0  0  0  0  0  0  0  0  0  0  0  0
   -3.1215    1.1865    1.9936 H   0  0  0  0  0  0  0  0  0  0  0  0
   -4.2656   -0.5942    2.8300 H   0  0  0  0  0  0  0  0  0  0  0  0
   -4.2230   -0.0525   -0.5572 H   0  0  0  0  0  0  0  0  0  0  0  0
   -4.9909    1.8944    0.2781 H   0  0  0  0  0  0  0  0  0  0  0  0
  1  2  1  0
  2  3  1  0
  3  4  1  0
  4  5  1  0
  5  6  1  0
  6  7  1  0
  7  8  1  0
  8  9  1  0
  9 10  2  0
 10 11  1  0
 11 12  1  0
 11 13  2  0
 13 14  1  0
 14 15  2  0
  6 16  1  0
 16 17  1  0
 17 18  1  0
 18 19  1  0
 18 20  1  0
 20 21  1  0
 15  5  1  0
 15  9  1  0
 16  2  1  0
 20  2  1  0
  1 22  1  0
  1 23  1  0
  1 24  1  0
  3 25  1  0
  3 26  1  0
  4 27  1  0
  4 28  1  0
  5 29  1  0
  6 30  1  0
  7 31  1  0
  7 32  1  0
  8 33  1  0
  8 34  1  0
 10 35  1  0
 12 36  1  0
 13 37  1  0
 14 38  1  0
 16 39  1  0
 17 40  1  0
 17 41  1  0
 18 42  1  0
 19 43  1  0
 20 44  1  0
 21 45  1  0
M  END
>  <Energy>  (1) 
76.04063363271123

>  <Real charge>  (1) 
0

>  <Mult>  (1) 
1

$$$$
mol_845 383
     RDKit          3D

 45 48  0  0  0  0  0  0  0  0999 V2000
   -2.4725   -0.4074    1.9636 C   0  0  0  0  0  0  0  0  0  0  0  0
   -2.2814    0.0256    0.4992 C   0  0  0  0  0  0  0  0  0  0  0  0
   -1.6415    1.4310    0.4580 C   0  0  0  0  0  0  0  0  0  0  0  0
   -0.1492    1.4352    0.8019 C   0  0  0  0  0  0  0  0  0  0  0  0
    0.6515    0.4816   -0.1075 C   0  0  0  0  0  0  0  0  0  0  0  0
    0.0578   -0.9444    0.0130 C   0  0  0  0  0  0  0  0  0  0  0  0
    0.8656   -1.9127   -0.8548 C   0  0  0  0  0  0  0  0  0  0  0  0
    2.2850   -2.0306   -0.3096 C   0  0  0  0  0  0  0  0  0  0  0  0
    2.9183   -0.6988    0.0094 C   0  0  0  0  0  0  0  0  0  0  0  0
    4.3078   -0.6674    0.2193 C   0  0  0  0  0  0  0  0  0  0  0  0
    4.9476    0.5270    0.5178 C   0  0  0  0  0  0  0  0  0  0  0  0
    6.2975    0.4987    0.7050 O   0  0  0  0  0  0  0  0  0  0  0  0
    4.2270    1.7073    0.6114 C   0  0  0  0  0  0  0  0  0  0  0  0
    2.8433    1.6850    0.4159 C   0  0  0  0  0  0  0  0  0  0  0  0
    2.1601    0.4853    0.1412 C   0  0  0  0  0  0  0  0  0  0  0  0
   -1.4492   -1.0047   -0.2958 C   0  0  0  0  0  0  0  0  0  0  0  0
   -1.8393   -0.7653   -1.7671 C   0  0  0  0  0  0  0  0  0  0  0  0
   -3.2611   -0.1982   -1.7387 C   0  0  0  0  0  0  0  0  0  0  0  0
   -3.2867    1.0648   -2.4015 O   0  0  0  0  0  0  0  0  0  0  0  0
   -3.6302   -0.0437   -0.2513 C   0  0  0  0  0  0  0  0  0  0  0  0
   -4.4559    1.0991   -0.0569 O   0  0  0  0  0  0  0  0  0  0  0  0
   -2.9312   -1.4006    2.0276 H   0  0  0  0  0  0  0  0  0  0  0  0
   -3.1256    0.2909    2.4984 H   0  0  0  0  0  0  0  0  0  0  0  0
   -1.5233   -0.4552    2.5056 H   0  0  0  0  0  0  0  0  0  0  0  0
   -1.7506    1.8767   -0.5371 H   0  0  0  0  0  0  0  0  0  0  0  0
   -2.1680    2.1057    1.1449 H   0  0  0  0  0  0  0  0  0  0  0  0
    0.2021    2.4668    0.6927 H   0  0  0  0  0  0  0  0  0  0  0  0
    0.0015    1.1701    1.8554 H   0  0  0  0  0  0  0  0  0  0  0  0
    0.5330    0.8295   -1.1429 H   0  0  0  0  0  0  0  0  0  0  0  0
    0.1760   -1.2708    1.0576 H   0  0  0  0  0  0  0  0  0  0  0  0
    0.8972   -1.5588   -1.8931 H   0  0  0  0  0  0  0  0  0  0  0  0
    0.4019   -2.9060   -0.8675 H   0  0  0  0  0  0  0  0  0  0  0  0
    2.2706   -2.6284    0.6106 H   0  0  0  0  0  0  0  0  0  0  0  0
    2.8979   -2.5689   -1.0428 H   0  0  0  0  0  0  0  0  0  0  0  0
    4.8964   -1.5784    0.1432 H   0  0  0  0  0  0  0  0  0  0  0  0
    6.5999    1.4015    0.8952 H   0  0  0  0  0  0  0  0  0  0  0  0
    4.7161    2.6515    0.8278 H   0  0  0  0  0  0  0  0  0  0  0  0
    2.3110    2.6306    0.4710 H   0  0  0  0  0  0  0  0  0  0  0  0
   -1.7999   -2.0150   -0.0352 H   0  0  0  0  0  0  0  0  0  0  0  0
   -1.8132   -1.7130   -2.3170 H   0  0  0  0  0  0  0  0  0  0  0  0
   -1.1551   -0.0788   -2.2756 H   0  0  0  0  0  0  0  0  0  0  0  0
   -3.9721   -0.8526   -2.2528 H   0  0  0  0  0  0  0  0  0  0  0  0
   -3.9393    1.5952   -1.8974 H   0  0  0  0  0  0  0  0  0  0  0  0
   -4.1928   -0.9331    0.0607 H   0  0  0  0  0  0  0  0  0  0  0  0
   -4.6271    1.1735    0.8984 H   0  0  0  0  0  0  0  0  0  0  0  0
  1  2  1  0
  2  3  1  0
  3  4  1  0
  4  5  1  0
  5  6  1  0
  6  7  1  0
  7  8  1  0
  8  9  1  0
  9 10  2  0
 10 11  1  0
 11 12  1  0
 11 13  2  0
 13 14  1  0
 14 15  2  0
  6 16  1  0
 16 17  1  0
 17 18  1  0
 18 19  1  0
 18 20  1  0
 20 21  1  0
 15  5  1  0
 15  9  1  0
 16  2  1  0
 20  2  1  0
  1 22  1  0
  1 23  1  0
  1 24  1  0
  3 25  1  0
  3 26  1  0
  4 27  1  0
  4 28  1  0
  5 29  1  0
  6 30  1  0
  7 31  1  0
  7 32  1  0
  8 33  1  0
  8 34  1  0
 10 35  1  0
 12 36  1  0
 13 37  1  0
 14 38  1  0
 16 39  1  0
 17 40  1  0
 17 41  1  0
 18 42  1  0
 19 43  1  0
 20 44  1  0
 21 45  1  0
M  END
>  <Energy>  (2) 
76.27359668384813

>  <Real charge>  (2) 
0

>  <Mult>  (2) 
1

$$$$
mol_845 433
     RDKit          3D

 45 48  0  0  0  0  0  0  0  0999 V2000
   -1.9247   -2.5567    0.3870 C   0  0  0  0  0  0  0  0  0  0  0  0
   -2.1038   -1.0300    0.3248 C   0  0  0  0  0  0  0  0  0  0  0  0
   -1.6024   -0.3916    1.6410 C   0  0  0  0  0  0  0  0  0  0  0  0
   -0.0768   -0.3471    1.7648 C   0  0  0  0  0  0  0  0  0  0  0  0
    0.5723    0.3772    0.5686 C   0  0  0  0  0  0  0  0  0  0  0  0
    0.1430   -0.3328   -0.7387 C   0  0  0  0  0  0  0  0  0  0  0  0
    0.8168    0.3395   -1.9374 C   0  0  0  0  0  0  0  0  0  0  0  0
    2.3263    0.1397   -1.8565 C   0  0  0  0  0  0  0  0  0  0  0  0
    2.8999    0.4453   -0.4939 C   0  0  0  0  0  0  0  0  0  0  0  0
    4.2936    0.6089   -0.3894 C   0  0  0  0  0  0  0  0  0  0  0  0
    4.8746    0.8861    0.8415 C   0  0  0  0  0  0  0  0  0  0  0  0
    6.2206    1.0557    0.9731 O   0  0  0  0  0  0  0  0  0  0  0  0
    4.0922    1.0062    1.9773 C   0  0  0  0  0  0  0  0  0  0  0  0
    2.7095    0.8342    1.8867 C   0  0  0  0  0  0  0  0  0  0  0  0
    2.0906    0.5244    0.6617 C   0  0  0  0  0  0  0  0  0  0  0  0
   -1.3850   -0.4244   -0.9050 C   0  0  0  0  0  0  0  0  0  0  0  0
   -2.1140    0.9072   -1.1822 C   0  0  0  0  0  0  0  0  0  0  0  0
   -3.4789    0.8041   -0.4907 C   0  0  0  0  0  0  0  0  0  0  0  0
   -4.5508    1.0616   -1.3946 O   0  0  0  0  0  0  0  0  0  0  0  0
   -3.5704   -0.6358    0.0453 C   0  0  0  0  0  0  0  0  0  0  0  0
   -4.1427   -1.4685   -0.9685 O   0  0  0  0  0  0  0  0  0  0  0  0
   -0.8866   -2.8399    0.5854 H   0  0  0  0  0  0  0  0  0  0  0  0
   -2.2104   -3.0402   -0.5534 H   0  0  0  0  0  0  0  0  0  0  0  0
   -2.5443   -2.9867    1.1820 H   0  0  0  0  0  0  0  0  0  0  0  0
   -2.0173   -0.9358    2.4990 H   0  0  0  0  0  0  0  0  0  0  0  0
   -1.9712    0.6364    1.7398 H   0  0  0  0  0  0  0  0  0  0  0  0
    0.1539    0.1651    2.7051 H   0  0  0  0  0  0  0  0  0  0  0  0
    0.3304   -1.3608    1.8609 H   0  0  0  0  0  0  0  0  0  0  0  0
    0.1885    1.4067    0.5548 H   0  0  0  0  0  0  0  0  0  0  0  0
    0.5157   -1.3677   -0.6973 H   0  0  0  0  0  0  0  0  0  0  0  0
    0.4484   -0.0827   -2.8797 H   0  0  0  0  0  0  0  0  0  0  0  0
    0.5870    1.4123   -1.9535 H   0  0  0  0  0  0  0  0  0  0  0  0
    2.5682   -0.9025   -2.1005 H   0  0  0  0  0  0  0  0  0  0  0  0
    2.8039    0.7747   -2.6126 H   0  0  0  0  0  0  0  0  0  0  0  0
    4.9095    0.5213   -1.2800 H   0  0  0  0  0  0  0  0  0  0  0  0
    6.6331    0.9308    0.1030 H   0  0  0  0  0  0  0  0  0  0  0  0
    4.5531    1.2367    2.9334 H   0  0  0  0  0  0  0  0  0  0  0  0
    2.1279    0.9576    2.7957 H   0  0  0  0  0  0  0  0  0  0  0  0
   -1.5775   -1.0702   -1.7752 H   0  0  0  0  0  0  0  0  0  0  0  0
   -2.2073    1.0787   -2.2606 H   0  0  0  0  0  0  0  0  0  0  0  0
   -1.5705    1.7629   -0.7691 H   0  0  0  0  0  0  0  0  0  0  0  0
   -3.5398    1.5270    0.3302 H   0  0  0  0  0  0  0  0  0  0  0  0
   -4.4123    1.9550   -1.7565 H   0  0  0  0  0  0  0  0  0  0  0  0
   -4.2123   -0.7017    0.9295 H   0  0  0  0  0  0  0  0  0  0  0  0
   -4.7598   -0.8800   -1.4528 H   0  0  0  0  0  0  0  0  0  0  0  0
  1  2  1  0
  2  3  1  0
  3  4  1  0
  4  5  1  0
  5  6  1  0
  6  7  1  0
  7  8  1  0
  8  9  1  0
  9 10  2  0
 10 11  1  0
 11 12  1  0
 11 13  2  0
 13 14  1  0
 14 15  2  0
  6 16  1  0
 16 17  1  0
 17 18  1  0
 18 19  1  0
 18 20  1  0
 20 21  1  0
 15  5  1  0
 15  9  1  0
 16  2  1  0
 20  2  1  0
  1 22  1  0
  1 23  1  0
  1 24  1  0
  3 25  1  0
  3 26  1  0
  4 27  1  0
  4 28  1  0
  5 29  1  0
  6 30  1  0
  7 31  1  0
  7 32  1  0
  8 33  1  0
  8 34  1  0
 10 35  1  0
 12 36  1  0
 13 37  1  0
 14 38  1  0
 16 39  1  0
 17 40  1  0
 17 41  1  0
 18 42  1  0
 19 43  1  0
 20 44  1  0
 21 45  1  0
M  END
>  <Energy>  (3) 
76.40071717351097

>  <Real charge>  (3) 
0

>  <Mult>  (3) 
1

$$$$
mol_845 225
     RDKit          3D

 45 48  0  0  0  0  0  0  0  0999 V2000
   -2.1599    2.1776   -1.0077 C   0  0  0  0  0  0  0  0  0  0  0  0
   -2.1403    1.0021   -0.0155 C   0  0  0  0  0  0  0  0  0  0  0  0
   -1.3479    1.4012    1.2510 C   0  0  0  0  0  0  0  0  0  0  0  0
    0.1690    1.4360    1.0460 C   0  0  0  0  0  0  0  0  0  0  0  0
    0.7043    0.0915    0.5145 C   0  0  0  0  0  0  0  0  0  0  0  0
   -0.0261   -0.2510   -0.8074 C   0  0  0  0  0  0  0  0  0  0  0  0
    0.5245   -1.5603   -1.3784 C   0  0  0  0  0  0  0  0  0  0  0  0
    1.9866   -1.3758   -1.7702 C   0  0  0  0  0  0  0  0  0  0  0  0
    2.8105   -0.6954   -0.7047 C   0  0  0  0  0  0  0  0  0  0  0  0
    4.2101   -0.7612   -0.8169 C   0  0  0  0  0  0  0  0  0  0  0  0
    5.0214   -0.1485    0.1271 C   0  0  0  0  0  0  0  0  0  0  0  0
    6.3716   -0.2496   -0.0296 O   0  0  0  0  0  0  0  0  0  0  0  0
    4.4645    0.5356    1.1962 C   0  0  0  0  0  0  0  0  0  0  0  0
    3.0738    0.6158    1.3114 C   0  0  0  0  0  0  0  0  0  0  0  0
    2.2231    0.0299    0.3551 C   0  0  0  0  0  0  0  0  0  0  0  0
   -1.5590   -0.2776   -0.6639 C   0  0  0  0  0  0  0  0  0  0  0  0
   -2.1382   -1.4459    0.1612 C   0  0  0  0  0  0  0  0  0  0  0  0
   -3.3726   -0.8934    0.8842 C   0  0  0  0  0  0  0  0  0  0  0  0
   -4.5344   -1.6772    0.6231 O   0  0  0  0  0  0  0  0  0  0  0  0
   -3.5665    0.5375    0.3512 C   0  0  0  0  0  0  0  0  0  0  0  0
   -4.4053    0.4874   -0.8074 O   0  0  0  0  0  0  0  0  0  0  0  0
   -1.1508    2.5097   -1.2698 H   0  0  0  0  0  0  0  0  0  0  0  0
   -2.6591    1.9120   -1.9459 H   0  0  0  0  0  0  0  0  0  0  0  0
   -2.6917    3.0352   -0.5808 H   0  0  0  0  0  0  0  0  0  0  0  0
   -1.6857    2.3833    1.6058 H   0  0  0  0  0  0  0  0  0  0  0  0
   -1.5536    0.7057    2.0736 H   0  0  0  0  0  0  0  0  0  0  0  0
    0.6179    1.6809    2.0145 H   0  0  0  0  0  0  0  0  0  0  0  0
    0.4460    2.2503    0.3657 H   0  0  0  0  0  0  0  0  0  0  0  0
    0.4664   -0.6795    1.2602 H   0  0  0  0  0  0  0  0  0  0  0  0
    0.2062    0.5417   -1.5351 H   0  0  0  0  0  0  0  0  0  0  0  0
    0.4402   -2.3657   -0.6380 H   0  0  0  0  0  0  0  0  0  0  0  0
   -0.0472   -1.8727   -2.2601 H   0  0  0  0  0  0  0  0  0  0  0  0
    2.0438   -0.7691   -2.6828 H   0  0  0  0  0  0  0  0  0  0  0  0
    2.4138   -2.3593   -2.0007 H   0  0  0  0  0  0  0  0  0  0  0  0
    4.6711   -1.2965   -1.6436 H   0  0  0  0  0  0  0  0  0  0  0  0
    6.8025    0.2356    0.6926 H   0  0  0  0  0  0  0  0  0  0  0  0
    5.0868    1.0070    1.9498 H   0  0  0  0  0  0  0  0  0  0  0  0
    2.6695    1.1399    2.1728 H   0  0  0  0  0  0  0  0  0  0  0  0
   -1.9772   -0.3765   -1.6772 H   0  0  0  0  0  0  0  0  0  0  0  0
   -1.4245   -1.8113    0.9064 H   0  0  0  0  0  0  0  0  0  0  0  0
   -2.3831   -2.2933   -0.4890 H   0  0  0  0  0  0  0  0  0  0  0  0
   -3.2007   -0.8831    1.9662 H   0  0  0  0  0  0  0  0  0  0  0  0
   -4.3364   -2.5872    0.9077 H   0  0  0  0  0  0  0  0  0  0  0  0
   -4.0562    1.1835    1.0868 H   0  0  0  0  0  0  0  0  0  0  0  0
   -5.0073   -0.2695   -0.6447 H   0  0  0  0  0  0  0  0  0  0  0  0
  1  2  1  0
  2  3  1  0
  3  4  1  0
  4  5  1  0
  5  6  1  0
  6  7  1  0
  7  8  1  0
  8  9  1  0
  9 10  2  0
 10 11  1  0
 11 12  1  0
 11 13  2  0
 13 14  1  0
 14 15  2  0
  6 16  1  0
 16 17  1  0
 17 18  1  0
 18 19  1  0
 18 20  1  0
 20 21  1  0
 15  5  1  0
 15  9  1  0
 16  2  1  0
 20  2  1  0
  1 22  1  0
  1 23  1  0
  1 24  1  0
  3 25  1  0
  3 26  1  0
  4 27  1  0
  4 28  1  0
  5 29  1  0
  6 30  1  0
  7 31  1  0
  7 32  1  0
  8 33  1  0
  8 34  1  0
 10 35  1  0
 12 36  1  0
 13 37  1  0
 14 38  1  0
 16 39  1  0
 17 40  1  0
 17 41  1  0
 18 42  1  0
 19 43  1  0
 20 44  1  0
 21 45  1  0
M  END
>  <Energy>  (4) 
76.44309437310159

>  <Real charge>  (4) 
0

>  <Mult>  (4) 
1

$$$$
mol_845 338
     RDKit          3D

 45 48  0  0  0  0  0  0  0  0999 V2000
   -2.0491   -1.5614   -1.9794 C   0  0  0  0  0  0  0  0  0  0  0  0
   -2.1426   -0.8188   -0.6350 C   0  0  0  0  0  0  0  0  0  0  0  0
   -1.4840   -1.6747    0.4701 C   0  0  0  0  0  0  0  0  0  0  0  0
    0.0465   -1.6737    0.4156 C   0  0  0  0  0  0  0  0  0  0  0  0
    0.6198   -0.2434    0.4664 C   0  0  0  0  0  0  0  0  0  0  0  0
    0.0214    0.5803   -0.7012 C   0  0  0  0  0  0  0  0  0  0  0  0
    0.6089    1.9937   -0.6873 C   0  0  0  0  0  0  0  0  0  0  0  0
    2.1052    1.9319   -0.9747 C   0  0  0  0  0  0  0  0  0  0  0  0
    2.8299    0.8816   -0.1685 C   0  0  0  0  0  0  0  0  0  0  0  0
    4.2347    0.9462   -0.1171 C   0  0  0  0  0  0  0  0  0  0  0  0
    4.9521    0.0012    0.6053 C   0  0  0  0  0  0  0  0  0  0  0  0
    6.3126    0.0414    0.6785 O   0  0  0  0  0  0  0  0  0  0  0  0
    4.2962   -1.0121    1.2831 C   0  0  0  0  0  0  0  0  0  0  0  0
    2.9032   -1.0920    1.2295 C   0  0  0  0  0  0  0  0  0  0  0  0
    2.1466   -0.1688    0.4845 C   0  0  0  0  0  0  0  0  0  0  0  0
   -1.5180    0.5909   -0.7124 C   0  0  0  0  0  0  0  0  0  0  0  0
   -2.1893    1.3716    0.4340 C   0  0  0  0  0  0  0  0  0  0  0  0
   -3.5661    0.7288    0.6329 C   0  0  0  0  0  0  0  0  0  0  0  0
   -3.7118    0.2714    1.9804 O   0  0  0  0  0  0  0  0  0  0  0  0
   -3.6171   -0.4713   -0.3313 C   0  0  0  0  0  0  0  0  0  0  0  0
   -4.3432   -1.5605    0.2172 O   0  0  0  0  0  0  0  0  0  0  0  0
   -2.5037   -0.9782   -2.7882 H   0  0  0  0  0  0  0  0  0  0  0  0
   -1.0130   -1.7605   -2.2689 H   0  0  0  0  0  0  0  0  0  0  0  0
   -2.5734   -2.5224   -1.9327 H   0  0  0  0  0  0  0  0  0  0  0  0
   -1.7777   -1.3159    1.4633 H   0  0  0  0  0  0  0  0  0  0  0  0
   -1.8427   -2.7101    0.4100 H   0  0  0  0  0  0  0  0  0  0  0  0
    0.3984   -2.1916   -0.4848 H   0  0  0  0  0  0  0  0  0  0  0  0
    0.3980   -2.2666    1.2668 H   0  0  0  0  0  0  0  0  0  0  0  0
    0.3038    0.2080    1.4169 H   0  0  0  0  0  0  0  0  0  0  0  0
    0.3378    0.1073   -1.6435 H   0  0  0  0  0  0  0  0  0  0  0  0
    0.1242    2.6256   -1.4408 H   0  0  0  0  0  0  0  0  0  0  0  0
    0.4395    2.4677    0.2878 H   0  0  0  0  0  0  0  0  0  0  0  0
    2.5402    2.9191   -0.7769 H   0  0  0  0  0  0  0  0  0  0  0  0
    2.2609    1.7101   -2.0382 H   0  0  0  0  0  0  0  0  0  0  0  0
    4.7520    1.7437   -0.6429 H   0  0  0  0  0  0  0  0  0  0  0  0
    6.6274    0.7936    0.1517 H   0  0  0  0  0  0  0  0  0  0  0  0
    4.8635   -1.7390    1.8571 H   0  0  0  0  0  0  0  0  0  0  0  0
    2.4239   -1.8878    1.7924 H   0  0  0  0  0  0  0  0  0  0  0  0
   -1.8390    1.0666   -1.6517 H   0  0  0  0  0  0  0  0  0  0  0  0
   -1.6061    1.3395    1.3596 H   0  0  0  0  0  0  0  0  0  0  0  0
   -2.2939    2.4262    0.1549 H   0  0  0  0  0  0  0  0  0  0  0  0
   -4.3833    1.4280    0.4283 H   0  0  0  0  0  0  0  0  0  0  0  0
   -3.6677    1.0562    2.5555 H   0  0  0  0  0  0  0  0  0  0  0  0
   -4.1218   -0.1575   -1.2538 H   0  0  0  0  0  0  0  0  0  0  0  0
   -4.3037   -1.4242    1.1875 H   0  0  0  0  0  0  0  0  0  0  0  0
  1  2  1  0
  2  3  1  0
  3  4  1  0
  4  5  1  0
  5  6  1  0
  6  7  1  0
  7  8  1  0
  8  9  1  0
  9 10  2  0
 10 11  1  0
 11 12  1  0
 11 13  2  0
 13 14  1  0
 14 15  2  0
  6 16  1  0
 16 17  1  0
 17 18  1  0
 18 19  1  0
 18 20  1  0
 20 21  1  0
 15  5  1  0
 15  9  1  0
 16  2  1  0
 20  2  1  0
  1 22  1  0
  1 23  1  0
  1 24  1  0
  3 25  1  0
  3 26  1  0
  4 27  1  0
  4 28  1  0
  5 29  1  0
  6 30  1  0
  7 31  1  0
  7 32  1  0
  8 33  1  0
  8 34  1  0
 10 35  1  0
 12 36  1  0
 13 37  1  0
 14 38  1  0
 16 39  1  0
 17 40  1  0
 17 41  1  0
 18 42  1  0
 19 43  1  0
 20 44  1  0
 21 45  1  0
M  END
>  <Energy>  (5) 
76.63706933851765

>  <Real charge>  (5) 
0

>  <Mult>  (5) 
1

$$$$
mol_845 426
     RDKit          3D

 45 48  0  0  0  0  0  0  0  0999 V2000
   -2.1751   -1.8793    1.3073 C   0  0  0  0  0  0  0  0  0  0  0  0
   -2.1453   -0.4183    0.8266 C   0  0  0  0  0  0  0  0  0  0  0  0
   -1.3541    0.4457    1.8361 C   0  0  0  0  0  0  0  0  0  0  0  0
    0.1617    0.2385    1.7736 C   0  0  0  0  0  0  0  0  0  0  0  0
    0.7157    0.4779    0.3548 C   0  0  0  0  0  0  0  0  0  0  0  0
   -0.0183   -0.4592   -0.6359 C   0  0  0  0  0  0  0  0  0  0  0  0
    0.5477   -0.2640   -2.0447 C   0  0  0  0  0  0  0  0  0  0  0  0
    2.0040   -0.7144   -2.0810 C   0  0  0  0  0  0  0  0  0  0  0  0
    2.8269   -0.1841   -0.9316 C   0  0  0  0  0  0  0  0  0  0  0  0
    4.2277   -0.2724   -1.0316 C   0  0  0  0  0  0  0  0  0  0  0  0
    5.0331    0.1951   -0.0009 C   0  0  0  0  0  0  0  0  0  0  0  0
    6.3927    0.1287   -0.0717 O   0  0  0  0  0  0  0  0  0  0  0  0
    4.4696    0.7538    1.1335 C   0  0  0  0  0  0  0  0  0  0  0  0
    3.0805    0.8367    1.2474 C   0  0  0  0  0  0  0  0  0  0  0  0
    2.2339    0.3469    0.2358 C   0  0  0  0  0  0  0  0  0  0  0  0
   -1.5499   -0.3050   -0.5973 C   0  0  0  0  0  0  0  0  0  0  0  0
   -2.1065    1.0181   -1.1611 C   0  0  0  0  0  0  0  0  0  0  0  0
   -3.3511    1.3510   -0.3300 C   0  0  0  0  0  0  0  0  0  0  0  0
   -4.4827    1.5572   -1.1654 O   0  0  0  0  0  0  0  0  0  0  0  0
   -3.5659    0.1523    0.6129 C   0  0  0  0  0  0  0  0  0  0  0  0
   -4.4209   -0.7826   -0.0627 O   0  0  0  0  0  0  0  0  0  0  0  0
   -2.6590   -2.5389    0.5789 H   0  0  0  0  0  0  0  0  0  0  0  0
   -2.7255   -1.9648    2.2508 H   0  0  0  0  0  0  0  0  0  0  0  0
   -1.1696   -2.2778    1.4728 H   0  0  0  0  0  0  0  0  0  0  0  0
   -1.7038    0.2384    2.8556 H   0  0  0  0  0  0  0  0  0  0  0  0
   -1.5480    1.5124    1.6709 H   0  0  0  0  0  0  0  0  0  0  0  0
    0.4259   -0.7683    2.1188 H   0  0  0  0  0  0  0  0  0  0  0  0
    0.6101    0.9344    2.4908 H   0  0  0  0  0  0  0  0  0  0  0  0
    0.4982    1.5204    0.0842 H   0  0  0  0  0  0  0  0  0  0  0  0
    0.1990   -1.4973   -0.3410 H   0  0  0  0  0  0  0  0  0  0  0  0
    0.4806    0.7904   -2.3410 H   0  0  0  0  0  0  0  0  0  0  0  0
   -0.0255   -0.8415   -2.7794 H   0  0  0  0  0  0  0  0  0  0  0  0
    2.4451   -0.3954   -3.0331 H   0  0  0  0  0  0  0  0  0  0  0  0
    2.0449   -1.8106   -2.0495 H   0  0  0  0  0  0  0  0  0  0  0  0
    4.6729   -0.7043   -1.9235 H   0  0  0  0  0  0  0  0  0  0  0  0
    6.6373   -0.2778   -0.9188 H   0  0  0  0  0  0  0  0  0  0  0  0
    5.1070    1.1305    1.9281 H   0  0  0  0  0  0  0  0  0  0  0  0
    2.6776    1.3033    2.1417 H   0  0  0  0  0  0  0  0  0  0  0  0
   -1.9727   -1.1095   -1.2180 H   0  0  0  0  0  0  0  0  0  0  0  0
   -1.3857    1.8363   -1.0646 H   0  0  0  0  0  0  0  0  0  0  0  0
   -2.3347    0.9187   -2.2284 H   0  0  0  0  0  0  0  0  0  0  0  0
   -3.1770    2.2704    0.2389 H   0  0  0  0  0  0  0  0  0  0  0  0
   -4.8661    0.6623   -1.2833 H   0  0  0  0  0  0  0  0  0  0  0  0
   -4.0628    0.4549    1.5406 H   0  0  0  0  0  0  0  0  0  0  0  0
   -4.6920   -1.4482    0.5943 H   0  0  0  0  0  0  0  0  0  0  0  0
  1  2  1  0
  2  3  1  0
  3  4  1  0
  4  5  1  0
  5  6  1  0
  6  7  1  0
  7  8  1  0
  8  9  1  0
  9 10  2  0
 10 11  1  0
 11 12  1  0
 11 13  2  0
 13 14  1  0
 14 15  2  0
  6 16  1  0
 16 17  1  0
 17 18  1  0
 18 19  1  0
 18 20  1  0
 20 21  1  0
 15  5  1  0
 15  9  1  0
 16  2  1  0
 20  2  1  0
  1 22  1  0
  1 23  1  0
  1 24  1  0
  3 25  1  0
  3 26  1  0
  4 27  1  0
  4 28  1  0
  5 29  1  0
  6 30  1  0
  7 31  1  0
  7 32  1  0
  8 33  1  0
  8 34  1  0
 10 35  1  0
 12 36  1  0
 13 37  1  0
 14 38  1  0
 16 39  1  0
 17 40  1  0
 17 41  1  0
 18 42  1  0
 19 43  1  0
 20 44  1  0
 21 45  1  0
M  END
>  <Energy>  (6) 
76.7776170971994

>  <Real charge>  (6) 
0

>  <Mult>  (6) 
1

$$$$
mol_845 294
     RDKit          3D

 45 48  0  0  0  0  0  0  0  0999 V2000
   -2.3571   -1.9358   -0.2909 C   0  0  0  0  0  0  0  0  0  0  0  0
   -2.1738   -0.4839    0.1815 C   0  0  0  0  0  0  0  0  0  0  0  0
   -1.4174   -0.4666    1.5276 C   0  0  0  0  0  0  0  0  0  0  0  0
    0.0836   -0.7022    1.3745 C   0  0  0  0  0  0  0  0  0  0  0  0
    0.7284    0.3342    0.4369 C   0  0  0  0  0  0  0  0  0  0  0  0
    0.0490    0.3611   -0.9534 C   0  0  0  0  0  0  0  0  0  0  0  0
    0.5451   -0.8157   -1.8086 C   0  0  0  0  0  0  0  0  0  0  0  0
    2.0458   -0.6956   -2.0616 C   0  0  0  0  0  0  0  0  0  0  0  0
    2.8373   -0.4037   -0.8133 C   0  0  0  0  0  0  0  0  0  0  0  0
    4.2282   -0.5931   -0.8406 C   0  0  0  0  0  0  0  0  0  0  0  0
    5.0017   -0.2907    0.2733 C   0  0  0  0  0  0  0  0  0  0  0  0
    6.3465   -0.4998    0.1898 O   0  0  0  0  0  0  0  0  0  0  0  0
    4.4174    0.2126    1.4271 C   0  0  0  0  0  0  0  0  0  0  0  0
    3.0368    0.4141    1.4613 C   0  0  0  0  0  0  0  0  0  0  0  0
    2.2311    0.1100    0.3482 C   0  0  0  0  0  0  0  0  0  0  0  0
   -1.4922    0.4180   -0.8771 C   0  0  0  0  0  0  0  0  0  0  0  0
   -1.9992    1.8479   -0.5580 C   0  0  0  0  0  0  0  0  0  0  0  0
   -3.2663    1.6864    0.2805 C   0  0  0  0  0  0  0  0  0  0  0  0
   -4.3636    2.4035   -0.2711 O   0  0  0  0  0  0  0  0  0  0  0  0
   -3.5626    0.1843    0.2797 C   0  0  0  0  0  0  0  0  0  0  0  0
   -4.2805   -0.2001    1.4435 O   0  0  0  0  0  0  0  0  0  0  0  0
   -3.0127   -2.4873    0.3930 H   0  0  0  0  0  0  0  0  0  0  0  0
   -2.8144   -1.9758   -1.2859 H   0  0  0  0  0  0  0  0  0  0  0  0
   -1.4151   -2.4849   -0.3396 H   0  0  0  0  0  0  0  0  0  0  0  0
   -1.5545    0.4947    2.0375 H   0  0  0  0  0  0  0  0  0  0  0  0
   -1.8320   -1.2244    2.2044 H   0  0  0  0  0  0  0  0  0  0  0  0
    0.2759   -1.7217    1.0204 H   0  0  0  0  0  0  0  0  0  0  0  0
    0.5398   -0.6449    2.3710 H   0  0  0  0  0  0  0  0  0  0  0  0
    0.5846    1.3278    0.8846 H   0  0  0  0  0  0  0  0  0  0  0  0
    0.3802    1.2744   -1.4713 H   0  0  0  0  0  0  0  0  0  0  0  0
    0.3472   -1.7721   -1.3169 H   0  0  0  0  0  0  0  0  0  0  0  0
    0.0236   -0.8400   -2.7727 H   0  0  0  0  0  0  0  0  0  0  0  0
    2.2290    0.1147   -2.7785 H   0  0  0  0  0  0  0  0  0  0  0  0
    2.4002   -1.6271   -2.5193 H   0  0  0  0  0  0  0  0  0  0  0  0
    4.7142   -0.9752   -1.7351 H   0  0  0  0  0  0  0  0  0  0  0  0
    6.7488   -0.2553    1.0390 H   0  0  0  0  0  0  0  0  0  0  0  0
    5.0115    0.4548    2.3019 H   0  0  0  0  0  0  0  0  0  0  0  0
    2.5859    0.8127    2.3678 H   0  0  0  0  0  0  0  0  0  0  0  0
   -1.8973    0.1673   -1.8686 H   0  0  0  0  0  0  0  0  0  0  0  0
   -2.1794    2.4056   -1.4841 H   0  0  0  0  0  0  0  0  0  0  0  0
   -1.2610    2.4174    0.0174 H   0  0  0  0  0  0  0  0  0  0  0  0
   -3.1163    2.0607    1.2995 H   0  0  0  0  0  0  0  0  0  0  0  0
   -4.1099    3.3427   -0.2998 H   0  0  0  0  0  0  0  0  0  0  0  0
   -4.1848   -0.0756   -0.5871 H   0  0  0  0  0  0  0  0  0  0  0  0
   -5.1014    0.3265    1.4332 H   0  0  0  0  0  0  0  0  0  0  0  0
  1  2  1  0
  2  3  1  0
  3  4  1  0
  4  5  1  0
  5  6  1  0
  6  7  1  0
  7  8  1  0
  8  9  1  0
  9 10  2  0
 10 11  1  0
 11 12  1  0
 11 13  2  0
 13 14  1  0
 14 15  2  0
  6 16  1  0
 16 17  1  0
 17 18  1  0
 18 19  1  0
 18 20  1  0
 20 21  1  0
 15  5  1  0
 15  9  1  0
 16  2  1  0
 20  2  1  0
  1 22  1  0
  1 23  1  0
  1 24  1  0
  3 25  1  0
  3 26  1  0
  4 27  1  0
  4 28  1  0
  5 29  1  0
  6 30  1  0
  7 31  1  0
  7 32  1  0
  8 33  1  0
  8 34  1  0
 10 35  1  0
 12 36  1  0
 13 37  1  0
 14 38  1  0
 16 39  1  0
 17 40  1  0
 17 41  1  0
 18 42  1  0
 19 43  1  0
 20 44  1  0
 21 45  1  0
M  END
>  <Energy>  (7) 
76.84669502693835

>  <Real charge>  (7) 
0

>  <Mult>  (7) 
1

$$$$
mol_845 208
     RDKit          3D

 45 48  0  0  0  0  0  0  0  0999 V2000
   -2.3820   -1.7343   -0.7927 C   0  0  0  0  0  0  0  0  0  0  0  0
   -2.1857   -0.2656   -0.3800 C   0  0  0  0  0  0  0  0  0  0  0  0
   -1.5018    0.5113   -1.5253 C   0  0  0  0  0  0  0  0  0  0  0  0
   -0.0027    0.2383   -1.6230 C   0  0  0  0  0  0  0  0  0  0  0  0
    0.7228    0.5705   -0.3065 C   0  0  0  0  0  0  0  0  0  0  0  0
    0.1205   -0.1947    0.8964 C   0  0  0  0  0  0  0  0  0  0  0  0
    0.6293   -1.6450    0.9116 C   0  0  0  0  0  0  0  0  0  0  0  0
    2.1443   -1.6767    1.0967 C   0  0  0  0  0  0  0  0  0  0  0  0
    2.8737   -0.7319    0.1775 C   0  0  0  0  0  0  0  0  0  0  0  0
    4.2571   -0.8974    0.0045 C   0  0  0  0  0  0  0  0  0  0  0  0
    4.9769   -0.0168   -0.7935 C   0  0  0  0  0  0  0  0  0  0  0  0
    6.3171   -0.2299   -0.9276 O   0  0  0  0  0  0  0  0  0  0  0  0
    4.3461    1.0461   -1.4245 C   0  0  0  0  0  0  0  0  0  0  0  0
    2.9728    1.2251   -1.2517 C   0  0  0  0  0  0  0  0  0  0  0  0
    2.2205    0.3430   -0.4539 C   0  0  0  0  0  0  0  0  0  0  0  0
   -1.4208   -0.1151    0.9593 C   0  0  0  0  0  0  0  0  0  0  0  0
   -1.9003    1.2415    1.5350 C   0  0  0  0  0  0  0  0  0  0  0  0
   -3.2142    1.5753    0.8328 C   0  0  0  0  0  0  0  0  0  0  0  0
   -4.2427    1.8524    1.7748 O   0  0  0  0  0  0  0  0  0  0  0  0
   -3.5573    0.3373   -0.0011 C   0  0  0  0  0  0  0  0  0  0  0  0
   -4.3538    0.7036   -1.1197 O   0  0  0  0  0  0  0  0  0  0  0  0
   -2.8021   -2.3251    0.0288 H   0  0  0  0  0  0  0  0  0  0  0  0
   -1.4503   -2.2131   -1.0989 H   0  0  0  0  0  0  0  0  0  0  0  0
   -3.0718   -1.8152   -1.6402 H   0  0  0  0  0  0  0  0  0  0  0  0
   -1.9747    0.2648   -2.4843 H   0  0  0  0  0  0  0  0  0  0  0  0
   -1.6372    1.5920   -1.3958 H   0  0  0  0  0  0  0  0  0  0  0  0
    0.1773   -0.8026   -1.9158 H   0  0  0  0  0  0  0  0  0  0  0  0
    0.4009    0.8490   -2.4407 H   0  0  0  0  0  0  0  0  0  0  0  0
    0.5852    1.6427   -0.1078 H   0  0  0  0  0  0  0  0  0  0  0  0
    0.5051    0.2713    1.8167 H   0  0  0  0  0  0  0  0  0  0  0  0
    0.3792   -2.1613   -0.0190 H   0  0  0  0  0  0  0  0  0  0  0  0
    0.1604   -2.2107    1.7254 H   0  0  0  0  0  0  0  0  0  0  0  0
    2.3896   -1.4039    2.1308 H   0  0  0  0  0  0  0  0  0  0  0  0
    2.4963   -2.7025    0.9338 H   0  0  0  0  0  0  0  0  0  0  0  0
    4.7798   -1.7134    0.4976 H   0  0  0  0  0  0  0  0  0  0  0  0
    6.6820    0.4613   -1.5036 H   0  0  0  0  0  0  0  0  0  0  0  0
    4.8985    1.7424   -2.0467 H   0  0  0  0  0  0  0  0  0  0  0  0
    2.4858    2.0640   -1.7449 H   0  0  0  0  0  0  0  0  0  0  0  0
   -1.7791   -0.8845    1.6590 H   0  0  0  0  0  0  0  0  0  0  0  0
   -2.0125    1.1780    2.6234 H   0  0  0  0  0  0  0  0  0  0  0  0
   -1.1768    2.0401    1.3368 H   0  0  0  0  0  0  0  0  0  0  0  0
   -3.1016    2.4677    0.2066 H   0  0  0  0  0  0  0  0  0  0  0  0
   -5.0517    1.9934    1.2486 H   0  0  0  0  0  0  0  0  0  0  0  0
   -4.1482   -0.3620    0.6050 H   0  0  0  0  0  0  0  0  0  0  0  0
   -4.5539   -0.1092   -1.6151 H   0  0  0  0  0  0  0  0  0  0  0  0
  1  2  1  0
  2  3  1  0
  3  4  1  0
  4  5  1  0
  5  6  1  0
  6  7  1  0
  7  8  1  0
  8  9  1  0
  9 10  2  0
 10 11  1  0
 11 12  1  0
 11 13  2  0
 13 14  1  0
 14 15  2  0
  6 16  1  0
 16 17  1  0
 17 18  1  0
 18 19  1  0
 18 20  1  0
 20 21  1  0
 15  5  1  0
 15  9  1  0
 16  2  1  0
 20  2  1  0
  1 22  1  0
  1 23  1  0
  1 24  1  0
  3 25  1  0
  3 26  1  0
  4 27  1  0
  4 28  1  0
  5 29  1  0
  6 30  1  0
  7 31  1  0
  7 32  1  0
  8 33  1  0
  8 34  1  0
 10 35  1  0
 12 36  1  0
 13 37  1  0
 14 38  1  0
 16 39  1  0
 17 40  1  0
 17 41  1  0
 18 42  1  0
 19 43  1  0
 20 44  1  0
 21 45  1  0
M  END
>  <Energy>  (8) 
76.90689762312705

>  <Real charge>  (8) 
0

>  <Mult>  (8) 
1

$$$$
