mol_231 78
     RDKit          3D

 19 19  0  0  0  0  0  0  0  0999 V2000
    2.3216    1.1191    0.3821 O   0  0  0  0  0  0  0  0  0  0  0  0
    1.1489    0.5612   -0.2007 C   0  0  0  0  0  0  0  0  0  0  0  0
    1.0786   -0.9195    0.1668 C   0  0  0  0  0  0  0  0  0  0  0  0
   -0.2124   -1.5622   -0.3294 C   0  0  0  0  0  0  0  0  0  0  0  0
   -1.4424   -0.8033    0.1626 C   0  0  0  0  0  0  0  0  0  0  0  0
   -1.3744    0.6782   -0.1996 C   0  0  0  0  0  0  0  0  0  0  0  0
   -0.0819    1.3185    0.2959 C   0  0  0  0  0  0  0  0  0  0  0  0
    2.3524    2.0592    0.1354 H   0  0  0  0  0  0  0  0  0  0  0  0
    1.2356    0.6631   -1.2891 H   0  0  0  0  0  0  0  0  0  0  0  0
    1.1576   -1.0347    1.2558 H   0  0  0  0  0  0  0  0  0  0  0  0
    1.9455   -1.4464   -0.2499 H   0  0  0  0  0  0  0  0  0  0  0  0
   -0.2609   -2.6030    0.0099 H   0  0  0  0  0  0  0  0  0  0  0  0
   -0.2113   -1.5829   -1.4261 H   0  0  0  0  0  0  0  0  0  0  0  0
   -2.3466   -1.2474   -0.2687 H   0  0  0  0  0  0  0  0  0  0  0  0
   -1.5230   -0.9082    1.2517 H   0  0  0  0  0  0  0  0  0  0  0  0
   -1.4425    0.7906   -1.2887 H   0  0  0  0  0  0  0  0  0  0  0  0
   -2.2349    1.2029    0.2302 H   0  0  0  0  0  0  0  0  0  0  0  0
   -0.0320    2.3640   -0.0314 H   0  0  0  0  0  0  0  0  0  0  0  0
   -0.0779    1.3509    1.3932 H   0  0  0  0  0  0  0  0  0  0  0  0
  1  2  1  0
  2  3  1  0
  3  4  1  0
  4  5  1  0
  5  6  1  0
  6  7  1  0
  7  2  1  0
  1  8  1  0
  2  9  1  0
  3 10  1  0
  3 11  1  0
  4 12  1  0
  4 13  1  0
  5 14  1  0
  5 15  1  0
  6 16  1  0
  6 17  1  0
  7 18  1  0
  7 19  1  0
M  END
>  <Energy>  (1) 
2.0720833385451836

>  <Real charge>  (1) 
0

>  <Mult>  (1) 
1

$$$$
mol_231 152
     RDKit          3D

 19 19  0  0  0  0  0  0  0  0999 V2000
    0.3767   -1.3673    1.5872 O   0  0  0  0  0  0  0  0  0  0  0  0
    0.5921   -1.2137    0.1858 C   0  0  0  0  0  0  0  0  0  0  0  0
    1.4105    0.0516   -0.0765 C   0  0  0  0  0  0  0  0  0  0  0  0
    0.6307    1.3220    0.2631 C   0  0  0  0  0  0  0  0  0  0  0  0
   -0.7149    1.3640   -0.4554 C   0  0  0  0  0  0  0  0  0  0  0  0
   -1.5413    0.1114   -0.1785 C   0  0  0  0  0  0  0  0  0  0  0  0
   -0.7651   -1.1622   -0.5158 C   0  0  0  0  0  0  0  0  0  0  0  0
    1.2489   -1.4112    2.0147 H   0  0  0  0  0  0  0  0  0  0  0  0
    1.1465   -2.0941   -0.1573 H   0  0  0  0  0  0  0  0  0  0  0  0
    1.7048    0.0812   -1.1327 H   0  0  0  0  0  0  0  0  0  0  0  0
    2.3299    0.0349    0.5202 H   0  0  0  0  0  0  0  0  0  0  0  0
    0.4686    1.3772    1.3465 H   0  0  0  0  0  0  0  0  0  0  0  0
    1.2233    2.2012   -0.0141 H   0  0  0  0  0  0  0  0  0  0  0  0
   -1.2741    2.2519   -0.1396 H   0  0  0  0  0  0  0  0  0  0  0  0
   -0.5482    1.4589   -1.5355 H   0  0  0  0  0  0  0  0  0  0  0  0
   -1.8366    0.0949    0.8778 H   0  0  0  0  0  0  0  0  0  0  0  0
   -2.4661    0.1435   -0.7655 H   0  0  0  0  0  0  0  0  0  0  0  0
   -0.6158   -1.2157   -1.6011 H   0  0  0  0  0  0  0  0  0  0  0  0
   -1.3700   -2.0285   -0.2232 H   0  0  0  0  0  0  0  0  0  0  0  0
  1  2  1  0
  2  3  1  0
  3  4  1  0
  4  5  1  0
  5  6  1  0
  6  7  1  0
  7  2  1  0
  1  8  1  0
  2  9  1  0
  3 10  1  0
  3 11  1  0
  4 12  1  0
  4 13  1  0
  5 14  1  0
  5 15  1  0
  6 16  1  0
  6 17  1  0
  7 18  1  0
  7 19  1  0
M  END
>  <Energy>  (2) 
2.3945066182279997

>  <Real charge>  (2) 
0

>  <Mult>  (2) 
1

$$$$
