mol_780 237
     RDKit          3D

 34 34  0  0  0  0  0  0  0  0999 V2000
   -0.2138    0.8366   -2.4360 O   0  0  0  0  0  0  0  0  0  0  0  0
   -1.0526    0.9442   -1.5447 C   0  0  0  0  0  0  0  0  0  0  0  0
   -2.0013    1.9275   -1.6133 N   0  0  0  0  0  0  0  0  0  0  0  0
   -2.6800    2.4170   -0.5416 C   0  0  0  0  0  0  0  0  0  0  0  0
   -3.1924    3.5311   -0.5631 O   0  0  0  0  0  0  0  0  0  0  0  0
   -2.6902    1.6536    0.5829 N   0  0  0  0  0  0  0  0  0  0  0  0
   -1.7506    0.6963    0.8464 C   0  0  0  0  0  0  0  0  0  0  0  0
   -1.4540    0.4274    2.0078 O   0  0  0  0  0  0  0  0  0  0  0  0
   -1.1723   -0.0179   -0.3685 C   0  0  0  0  0  0  0  0  0  0  0  0
   -2.1995   -1.0988   -0.8249 C   0  0  0  0  0  0  0  0  0  0  0  0
   -2.4151   -2.2547    0.1460 C   0  0  0  0  0  0  0  0  0  0  0  0
    0.2009   -0.6599   -0.0407 C   0  0  0  0  0  0  0  0  0  0  0  0
    1.3120    0.3501    0.3054 C   0  0  0  0  0  0  0  0  0  0  0  0
    2.6037   -0.3202    0.8150 C   0  0  0  0  0  0  0  0  0  0  0  0
    3.6004    0.7504    1.2663 C   0  0  0  0  0  0  0  0  0  0  0  0
    3.2526   -1.2167   -0.2405 C   0  0  0  0  0  0  0  0  0  0  0  0
   -1.9053    2.5694   -2.3890 H   0  0  0  0  0  0  0  0  0  0  0  0
   -3.0609    2.1227    1.3990 H   0  0  0  0  0  0  0  0  0  0  0  0
   -1.8806   -1.5197   -1.7882 H   0  0  0  0  0  0  0  0  0  0  0  0
   -3.1766   -0.6340   -1.0136 H   0  0  0  0  0  0  0  0  0  0  0  0
   -1.5097   -2.8569    0.2635 H   0  0  0  0  0  0  0  0  0  0  0  0
   -2.7323   -1.9016    1.1312 H   0  0  0  0  0  0  0  0  0  0  0  0
   -3.1984   -2.9176   -0.2367 H   0  0  0  0  0  0  0  0  0  0  0  0
    0.0967   -1.3451    0.8096 H   0  0  0  0  0  0  0  0  0  0  0  0
    0.5225   -1.2653   -0.8970 H   0  0  0  0  0  0  0  0  0  0  0  0
    0.9520    1.0384    1.0789 H   0  0  0  0  0  0  0  0  0  0  0  0
    1.5489    0.9647   -0.5706 H   0  0  0  0  0  0  0  0  0  0  0  0
    2.3586   -0.9386    1.6878 H   0  0  0  0  0  0  0  0  0  0  0  0
    3.8888    1.4014    0.4339 H   0  0  0  0  0  0  0  0  0  0  0  0
    4.5097    0.2912    1.6685 H   0  0  0  0  0  0  0  0  0  0  0  0
    3.1687    1.3773    2.0537 H   0  0  0  0  0  0  0  0  0  0  0  0
    3.4535   -0.6621   -1.1633 H   0  0  0  0  0  0  0  0  0  0  0  0
    2.6133   -2.0698   -0.4867 H   0  0  0  0  0  0  0  0  0  0  0  0
    4.2033   -1.6206    0.1245 H   0  0  0  0  0  0  0  0  0  0  0  0
  1  2  2  0
  2  3  1  0
  3  4  1  0
  4  5  2  0
  4  6  1  0
  6  7  1  0
  7  8  2  0
  7  9  1  0
  9 10  1  0
 10 11  1  0
  9 12  1  0
 12 13  1  0
 13 14  1  0
 14 15  1  0
 14 16  1  0
  9  2  1  0
  3 17  1  0
  6 18  1  0
 10 19  1  0
 10 20  1  0
 11 21  1  0
 11 22  1  0
 11 23  1  0
 12 24  1  0
 12 25  1  0
 13 26  1  0
 13 27  1  0
 14 28  1  0
 15 29  1  0
 15 30  1  0
 15 31  1  0
 16 32  1  0
 16 33  1  0
 16 34  1  0
M  END
>  <Energy>  (1) 
-123.5234879249608

>  <Real charge>  (1) 
0

>  <Mult>  (1) 
1

$$$$
mol_780 146
     RDKit          3D

 34 34  0  0  0  0  0  0  0  0999 V2000
   -2.3820    1.4909    1.7725 O   0  0  0  0  0  0  0  0  0  0  0  0
   -2.1310    0.4274    1.2108 C   0  0  0  0  0  0  0  0  0  0  0  0
   -2.6468   -0.7424    1.6981 N   0  0  0  0  0  0  0  0  0  0  0  0
   -2.8201   -1.8703    0.9587 C   0  0  0  0  0  0  0  0  0  0  0  0
   -3.6373   -2.7266    1.2799 O   0  0  0  0  0  0  0  0  0  0  0  0
   -2.1122   -1.9643   -0.1978 N   0  0  0  0  0  0  0  0  0  0  0  0
   -1.6139   -0.8766   -0.8593 C   0  0  0  0  0  0  0  0  0  0  0  0
   -1.4899   -0.9025   -2.0811 O   0  0  0  0  0  0  0  0  0  0  0  0
   -1.1907    0.2955    0.0174 C   0  0  0  0  0  0  0  0  0  0  0  0
   -1.1435    1.6146   -0.7919 C   0  0  0  0  0  0  0  0  0  0  0  0
   -2.4918    2.0733   -1.3470 C   0  0  0  0  0  0  0  0  0  0  0  0
    0.2071   -0.0368    0.6308 C   0  0  0  0  0  0  0  0  0  0  0  0
    1.3723   -0.0804   -0.3705 C   0  0  0  0  0  0  0  0  0  0  0  0
    2.6773   -0.6308    0.2393 C   0  0  0  0  0  0  0  0  0  0  0  0
    3.2073    0.2450    1.3755 C   0  0  0  0  0  0  0  0  0  0  0  0
    3.7436   -0.7634   -0.8511 C   0  0  0  0  0  0  0  0  0  0  0  0
   -3.2798   -0.6435    2.4808 H   0  0  0  0  0  0  0  0  0  0  0  0
   -2.3932   -2.7323   -0.7933 H   0  0  0  0  0  0  0  0  0  0  0  0
   -0.7394    2.4199   -0.1651 H   0  0  0  0  0  0  0  0  0  0  0  0
   -0.4630    1.5109   -1.6455 H   0  0  0  0  0  0  0  0  0  0  0  0
   -2.3591    2.9950   -1.9232 H   0  0  0  0  0  0  0  0  0  0  0  0
   -2.9306    1.3267   -2.0149 H   0  0  0  0  0  0  0  0  0  0  0  0
   -3.2114    2.2853   -0.5516 H   0  0  0  0  0  0  0  0  0  0  0  0
    0.1625   -1.0019    1.1535 H   0  0  0  0  0  0  0  0  0  0  0  0
    0.4341    0.7114    1.4017 H   0  0  0  0  0  0  0  0  0  0  0  0
    1.5588    0.9254   -0.7653 H   0  0  0  0  0  0  0  0  0  0  0  0
    1.0966   -0.7122   -1.2226 H   0  0  0  0  0  0  0  0  0  0  0  0
    2.4825   -1.6334    0.6407 H   0  0  0  0  0  0  0  0  0  0  0  0
    4.1687   -0.1325    1.7406 H   0  0  0  0  0  0  0  0  0  0  0  0
    2.5197    0.2530    2.2265 H   0  0  0  0  0  0  0  0  0  0  0  0
    3.3543    1.2787    1.0446 H   0  0  0  0  0  0  0  0  0  0  0  0
    3.9860    0.2101   -1.2907 H   0  0  0  0  0  0  0  0  0  0  0  0
    3.3987   -1.4225   -1.6549 H   0  0  0  0  0  0  0  0  0  0  0  0
    4.6660   -1.1908   -0.4439 H   0  0  0  0  0  0  0  0  0  0  0  0
  1  2  2  0
  2  3  1  0
  3  4  1  0
  4  5  2  0
  4  6  1  0
  6  7  1  0
  7  8  2  0
  7  9  1  0
  9 10  1  0
 10 11  1  0
  9 12  1  0
 12 13  1  0
 13 14  1  0
 14 15  1  0
 14 16  1  0
  9  2  1  0
  3 17  1  0
  6 18  1  0
 10 19  1  0
 10 20  1  0
 11 21  1  0
 11 22  1  0
 11 23  1  0
 12 24  1  0
 12 25  1  0
 13 26  1  0
 13 27  1  0
 14 28  1  0
 15 29  1  0
 15 30  1  0
 15 31  1  0
 16 32  1  0
 16 33  1  0
 16 34  1  0
M  END
>  <Energy>  (2) 
-123.4889212733189

>  <Real charge>  (2) 
0

>  <Mult>  (2) 
1

$$$$
mol_780 542
     RDKit          3D

 34 34  0  0  0  0  0  0  0  0999 V2000
   -0.7632   -0.1984   -2.2477 O   0  0  0  0  0  0  0  0  0  0  0  0
   -1.4910   -0.3027   -1.2636 C   0  0  0  0  0  0  0  0  0  0  0  0
   -2.6772   -0.9759   -1.3571 N   0  0  0  0  0  0  0  0  0  0  0  0
   -3.2512   -1.6265   -0.3109 C   0  0  0  0  0  0  0  0  0  0  0  0
   -4.0126   -2.5721   -0.4855 O   0  0  0  0  0  0  0  0  0  0  0  0
   -2.8760   -1.2392    0.9372 N   0  0  0  0  0  0  0  0  0  0  0  0
   -1.7353   -0.5377    1.2167 C   0  0  0  0  0  0  0  0  0  0  0  0
   -1.2466   -0.5823    2.3432 O   0  0  0  0  0  0  0  0  0  0  0  0
   -1.1931    0.3323    0.0882 C   0  0  0  0  0  0  0  0  0  0  0  0
   -1.9942    1.6672    0.1819 C   0  0  0  0  0  0  0  0  0  0  0  0
   -1.5653    2.7650   -0.7857 C   0  0  0  0  0  0  0  0  0  0  0  0
    0.3269    0.5816    0.2701 C   0  0  0  0  0  0  0  0  0  0  0  0
    1.1898   -0.6953    0.2641 C   0  0  0  0  0  0  0  0  0  0  0  0
    2.6706   -0.4288    0.6020 C   0  0  0  0  0  0  0  0  0  0  0  0
    3.3575    0.4615   -0.4346 C   0  0  0  0  0  0  0  0  0  0  0  0
    3.4225   -1.7572    0.7192 C   0  0  0  0  0  0  0  0  0  0  0  0
   -2.8585   -1.3974   -2.2587 H   0  0  0  0  0  0  0  0  0  0  0  0
   -3.2196   -1.8240    1.6875 H   0  0  0  0  0  0  0  0  0  0  0  0
   -3.0632    1.4765    0.0172 H   0  0  0  0  0  0  0  0  0  0  0  0
   -1.9181    2.0659    1.2027 H   0  0  0  0  0  0  0  0  0  0  0  0
   -2.2340    3.6266   -0.6866 H   0  0  0  0  0  0  0  0  0  0  0  0
   -1.6106    2.4286   -1.8253 H   0  0  0  0  0  0  0  0  0  0  0  0
   -0.5515    3.1161   -0.5738 H   0  0  0  0  0  0  0  0  0  0  0  0
    0.4971    1.1175    1.2130 H   0  0  0  0  0  0  0  0  0  0  0  0
    0.6851    1.2342   -0.5335 H   0  0  0  0  0  0  0  0  0  0  0  0
    0.7956   -1.4109    0.9942 H   0  0  0  0  0  0  0  0  0  0  0  0
    1.1253   -1.1851   -0.7146 H   0  0  0  0  0  0  0  0  0  0  0  0
    2.7242    0.0734    1.5762 H   0  0  0  0  0  0  0  0  0  0  0  0
    2.9282    1.4678   -0.4437 H   0  0  0  0  0  0  0  0  0  0  0  0
    3.2663    0.0412   -1.4418 H   0  0  0  0  0  0  0  0  0  0  0  0
    4.4241    0.5685   -0.2088 H   0  0  0  0  0  0  0  0  0  0  0  0
    4.4684   -1.5896    0.9977 H   0  0  0  0  0  0  0  0  0  0  0  0
    2.9721   -2.3933    1.4886 H   0  0  0  0  0  0  0  0  0  0  0  0
    3.4075   -2.3074   -0.2278 H   0  0  0  0  0  0  0  0  0  0  0  0
  1  2  2  0
  2  3  1  0
  3  4  1  0
  4  5  2  0
  4  6  1  0
  6  7  1  0
  7  8  2  0
  7  9  1  0
  9 10  1  0
 10 11  1  0
  9 12  1  0
 12 13  1  0
 13 14  1  0
 14 15  1  0
 14 16  1  0
  9  2  1  0
  3 17  1  0
  6 18  1  0
 10 19  1  0
 10 20  1  0
 11 21  1  0
 11 22  1  0
 11 23  1  0
 12 24  1  0
 12 25  1  0
 13 26  1  0
 13 27  1  0
 14 28  1  0
 15 29  1  0
 15 30  1  0
 15 31  1  0
 16 32  1  0
 16 33  1  0
 16 34  1  0
M  END
>  <Energy>  (3) 
-123.44417305179083

>  <Real charge>  (3) 
0

>  <Mult>  (3) 
1

$$$$
mol_780 323
     RDKit          3D

 34 34  0  0  0  0  0  0  0  0999 V2000
   -2.5393    0.5568   -2.1673 O   0  0  0  0  0  0  0  0  0  0  0  0
   -2.0732    0.8794   -1.0771 C   0  0  0  0  0  0  0  0  0  0  0  0
   -2.2329    2.1577   -0.6161 N   0  0  0  0  0  0  0  0  0  0  0  0
   -2.1553    2.5191    0.6924 C   0  0  0  0  0  0  0  0  0  0  0  0
   -2.6884    3.5433    1.1061 O   0  0  0  0  0  0  0  0  0  0  0  0
   -1.5367    1.6514    1.5360 N   0  0  0  0  0  0  0  0  0  0  0  0
   -1.3960    0.3189    1.2655 C   0  0  0  0  0  0  0  0  0  0  0  0
   -1.3625   -0.4961    2.1839 O   0  0  0  0  0  0  0  0  0  0  0  0
   -1.2310   -0.0451   -0.2045 C   0  0  0  0  0  0  0  0  0  0  0  0
   -1.6041   -1.5261   -0.4600 C   0  0  0  0  0  0  0  0  0  0  0  0
   -3.0692   -1.8711   -0.1923 C   0  0  0  0  0  0  0  0  0  0  0  0
    0.2494    0.2437   -0.6125 C   0  0  0  0  0  0  0  0  0  0  0  0
    1.3108   -0.6177    0.0902 C   0  0  0  0  0  0  0  0  0  0  0  0
    2.7503   -0.3063   -0.3683 C   0  0  0  0  0  0  0  0  0  0  0  0
    3.1958    1.1061    0.0144 C   0  0  0  0  0  0  0  0  0  0  0  0
    3.7175   -1.3294    0.2340 C   0  0  0  0  0  0  0  0  0  0  0  0
   -2.8045    2.7595   -1.1941 H   0  0  0  0  0  0  0  0  0  0  0  0
   -1.6484    1.8771    2.5159 H   0  0  0  0  0  0  0  0  0  0  0  0
   -1.3732   -1.7933   -1.4991 H   0  0  0  0  0  0  0  0  0  0  0  0
   -1.0003   -2.1851    0.1747 H   0  0  0  0  0  0  0  0  0  0  0  0
   -3.2348   -2.9391   -0.3693 H   0  0  0  0  0  0  0  0  0  0  0  0
   -3.7466   -1.3214   -0.8513 H   0  0  0  0  0  0  0  0  0  0  0  0
   -3.3526   -1.6600    0.8427 H   0  0  0  0  0  0  0  0  0  0  0  0
    0.3533    0.1048   -1.6976 H   0  0  0  0  0  0  0  0  0  0  0  0
    0.4711    1.3015   -0.4255 H   0  0  0  0  0  0  0  0  0  0  0  0
    1.2406   -0.4877    1.1764 H   0  0  0  0  0  0  0  0  0  0  0  0
    1.1121   -1.6747   -0.1188 H   0  0  0  0  0  0  0  0  0  0  0  0
    2.8010   -0.3997   -1.4605 H   0  0  0  0  0  0  0  0  0  0  0  0
    2.6126    1.8666   -0.5130 H   0  0  0  0  0  0  0  0  0  0  0  0
    3.0888    1.2782    1.0907 H   0  0  0  0  0  0  0  0  0  0  0  0
    4.2467    1.2667   -0.2501 H   0  0  0  0  0  0  0  0  0  0  0  0
    3.4439   -2.3470   -0.0643 H   0  0  0  0  0  0  0  0  0  0  0  0
    3.7136   -1.2837    1.3284 H   0  0  0  0  0  0  0  0  0  0  0  0
    4.7414   -1.1470   -0.1096 H   0  0  0  0  0  0  0  0  0  0  0  0
  1  2  2  0
  2  3  1  0
  3  4  1  0
  4  5  2  0
  4  6  1  0
  6  7  1  0
  7  8  2  0
  7  9  1  0
  9 10  1  0
 10 11  1  0
  9 12  1  0
 12 13  1  0
 13 14  1  0
 14 15  1  0
 14 16  1  0
  9  2  1  0
  3 17  1  0
  6 18  1  0
 10 19  1  0
 10 20  1  0
 11 21  1  0
 11 22  1  0
 11 23  1  0
 12 24  1  0
 12 25  1  0
 13 26  1  0
 13 27  1  0
 14 28  1  0
 15 29  1  0
 15 30  1  0
 15 31  1  0
 16 32  1  0
 16 33  1  0
 16 34  1  0
M  END
>  <Energy>  (4) 
-123.27678118062698

>  <Real charge>  (4) 
0

>  <Mult>  (4) 
1

$$$$
mol_780 7
     RDKit          3D

 34 34  0  0  0  0  0  0  0  0999 V2000
   -0.8289    1.1691    2.1909 O   0  0  0  0  0  0  0  0  0  0  0  0
   -1.3646    0.8813    1.1222 C   0  0  0  0  0  0  0  0  0  0  0  0
   -2.3522    1.6798    0.6203 N   0  0  0  0  0  0  0  0  0  0  0  0
   -2.7956    1.6720   -0.6634 C   0  0  0  0  0  0  0  0  0  0  0  0
   -3.4530    2.6009   -1.1203 O   0  0  0  0  0  0  0  0  0  0  0  0
   -2.4269    0.6163   -1.4342 N   0  0  0  0  0  0  0  0  0  0  0  0
   -1.4523   -0.2896   -1.1268 C   0  0  0  0  0  0  0  0  0  0  0  0
   -0.9983   -1.0214   -2.0045 O   0  0  0  0  0  0  0  0  0  0  0  0
   -1.0268   -0.3700    0.3293 C   0  0  0  0  0  0  0  0  0  0  0  0
   -1.7514   -1.5791    0.9884 C   0  0  0  0  0  0  0  0  0  0  0  0
   -3.2756   -1.5169    1.0171 C   0  0  0  0  0  0  0  0  0  0  0  0
    0.5055   -0.6354    0.4072 C   0  0  0  0  0  0  0  0  0  0  0  0
    1.3695    0.4695   -0.2278 C   0  0  0  0  0  0  0  0  0  0  0  0
    2.8810    0.2617   -0.0074 C   0  0  0  0  0  0  0  0  0  0  0  0
    3.4007   -1.0112   -0.6771 C   0  0  0  0  0  0  0  0  0  0  0  0
    3.6530    1.4738   -0.5352 C   0  0  0  0  0  0  0  0  0  0  0  0
   -2.5561    2.5169    1.1495 H   0  0  0  0  0  0  0  0  0  0  0  0
   -2.6893    0.6710   -2.4091 H   0  0  0  0  0  0  0  0  0  0  0  0
   -1.4034   -1.6900    2.0241 H   0  0  0  0  0  0  0  0  0  0  0  0
   -1.4665   -2.5019    0.4656 H   0  0  0  0  0  0  0  0  0  0  0  0
   -3.6984   -1.4742    0.0095 H   0  0  0  0  0  0  0  0  0  0  0  0
   -3.6718   -2.4168    1.4997 H   0  0  0  0  0  0  0  0  0  0  0  0
   -3.6354   -0.6559    1.5872 H   0  0  0  0  0  0  0  0  0  0  0  0
    0.7280   -1.5893   -0.0870 H   0  0  0  0  0  0  0  0  0  0  0  0
    0.8053   -0.7537    1.4570 H   0  0  0  0  0  0  0  0  0  0  0  0
    1.1657    0.5306   -1.3036 H   0  0  0  0  0  0  0  0  0  0  0  0
    1.0893    1.4400    0.1984 H   0  0  0  0  0  0  0  0  0  0  0  0
    3.0724    0.1860    1.0705 H   0  0  0  0  0  0  0  0  0  0  0  0
    3.1684   -1.0199   -1.7474 H   0  0  0  0  0  0  0  0  0  0  0  0
    4.4876   -1.0919   -0.5669 H   0  0  0  0  0  0  0  0  0  0  0  0
    2.9639   -1.9067   -0.2253 H   0  0  0  0  0  0  0  0  0  0  0  0
    4.7269    1.3615   -0.3521 H   0  0  0  0  0  0  0  0  0  0  0  0
    3.3253    2.3919   -0.0360 H   0  0  0  0  0  0  0  0  0  0  0  0
    3.5041    1.6015   -1.6128 H   0  0  0  0  0  0  0  0  0  0  0  0
  1  2  2  0
  2  3  1  0
  3  4  1  0
  4  5  2  0
  4  6  1  0
  6  7  1  0
  7  8  2  0
  7  9  1  0
  9 10  1  0
 10 11  1  0
  9 12  1  0
 12 13  1  0
 13 14  1  0
 14 15  1  0
 14 16  1  0
  9  2  1  0
  3 17  1  0
  6 18  1  0
 10 19  1  0
 10 20  1  0
 11 21  1  0
 11 22  1  0
 11 23  1  0
 12 24  1  0
 12 25  1  0
 13 26  1  0
 13 27  1  0
 14 28  1  0
 15 29  1  0
 15 30  1  0
 15 31  1  0
 16 32  1  0
 16 33  1  0
 16 34  1  0
M  END
>  <Energy>  (5) 
-123.07416897363899

>  <Real charge>  (5) 
0

>  <Mult>  (5) 
1

$$$$
mol_780 69
     RDKit          3D

 34 34  0  0  0  0  0  0  0  0999 V2000
   -0.9578    1.2674    2.3270 O   0  0  0  0  0  0  0  0  0  0  0  0
   -1.1870    0.4003    1.4857 C   0  0  0  0  0  0  0  0  0  0  0  0
   -1.4725   -0.8740    1.8842 N   0  0  0  0  0  0  0  0  0  0  0  0
   -2.0524   -1.8293    1.1127 C   0  0  0  0  0  0  0  0  0  0  0  0
   -2.5479   -2.8374    1.6046 O   0  0  0  0  0  0  0  0  0  0  0  0
   -2.1081   -1.5896   -0.2229 N   0  0  0  0  0  0  0  0  0  0  0  0
   -1.8496   -0.3953   -0.8324 C   0  0  0  0  0  0  0  0  0  0  0  0
   -2.1709   -0.2263   -2.0074 O   0  0  0  0  0  0  0  0  0  0  0  0
   -1.1154    0.6507   -0.0110 C   0  0  0  0  0  0  0  0  0  0  0  0
   -1.7041    2.0547   -0.3271 C   0  0  0  0  0  0  0  0  0  0  0  0
   -3.1795    2.2150    0.0339 C   0  0  0  0  0  0  0  0  0  0  0  0
    0.3831    0.6570   -0.4393 C   0  0  0  0  0  0  0  0  0  0  0  0
    1.1595   -0.6466   -0.1874 C   0  0  0  0  0  0  0  0  0  0  0  0
    2.5981   -0.6152   -0.7428 C   0  0  0  0  0  0  0  0  0  0  0  0
    3.2413   -1.9963   -0.5909 C   0  0  0  0  0  0  0  0  0  0  0  0
    3.4698    0.4364   -0.0549 C   0  0  0  0  0  0  0  0  0  0  0  0
   -1.5281   -1.0236    2.8825 H   0  0  0  0  0  0  0  0  0  0  0  0
   -2.6110   -2.2715   -0.7744 H   0  0  0  0  0  0  0  0  0  0  0  0
   -1.1377    2.8277    0.2084 H   0  0  0  0  0  0  0  0  0  0  0  0
   -1.5899    2.2765   -1.3962 H   0  0  0  0  0  0  0  0  0  0  0  0
   -3.3522    2.0649    1.1036 H   0  0  0  0  0  0  0  0  0  0  0  0
   -3.8092    1.5115   -0.5184 H   0  0  0  0  0  0  0  0  0  0  0  0
   -3.5146    3.2268   -0.2170 H   0  0  0  0  0  0  0  0  0  0  0  0
    0.4474    0.8926   -1.5103 H   0  0  0  0  0  0  0  0  0  0  0  0
    0.8892    1.4732    0.0912 H   0  0  0  0  0  0  0  0  0  0  0  0
    1.1943   -0.8589    0.8876 H   0  0  0  0  0  0  0  0  0  0  0  0
    0.6311   -1.4808   -0.6622 H   0  0  0  0  0  0  0  0  0  0  0  0
    2.5571   -0.3808   -1.8141 H   0  0  0  0  0  0  0  0  0  0  0  0
    2.6550   -2.7589   -1.1143 H   0  0  0  0  0  0  0  0  0  0  0  0
    3.3136   -2.2874    0.4627 H   0  0  0  0  0  0  0  0  0  0  0  0
    4.2510   -2.0046   -1.0151 H   0  0  0  0  0  0  0  0  0  0  0  0
    3.4834    0.2924    1.0307 H   0  0  0  0  0  0  0  0  0  0  0  0
    3.1113    1.4492   -0.2611 H   0  0  0  0  0  0  0  0  0  0  0  0
    4.5027    0.3808   -0.4157 H   0  0  0  0  0  0  0  0  0  0  0  0
  1  2  2  0
  2  3  1  0
  3  4  1  0
  4  5  2  0
  4  6  1  0
  6  7  1  0
  7  8  2  0
  7  9  1  0
  9 10  1  0
 10 11  1  0
  9 12  1  0
 12 13  1  0
 13 14  1  0
 14 15  1  0
 14 16  1  0
  9  2  1  0
  3 17  1  0
  6 18  1  0
 10 19  1  0
 10 20  1  0
 11 21  1  0
 11 22  1  0
 11 23  1  0
 12 24  1  0
 12 25  1  0
 13 26  1  0
 13 27  1  0
 14 28  1  0
 15 29  1  0
 15 30  1  0
 15 31  1  0
 16 32  1  0
 16 33  1  0
 16 34  1  0
M  END
>  <Energy>  (6) 
-122.97248170951937

>  <Real charge>  (6) 
0

>  <Mult>  (6) 
1

$$$$
mol_780 54
     RDKit          3D

 34 34  0  0  0  0  0  0  0  0999 V2000
   -0.9649    0.8114    2.1180 O   0  0  0  0  0  0  0  0  0  0  0  0
   -1.5864    0.7038    1.0639 C   0  0  0  0  0  0  0  0  0  0  0  0
   -2.7855    1.3413    0.9072 N   0  0  0  0  0  0  0  0  0  0  0  0
   -3.2521    1.7676   -0.2960 C   0  0  0  0  0  0  0  0  0  0  0  0
   -4.0411    2.7027   -0.3814 O   0  0  0  0  0  0  0  0  0  0  0  0
   -2.7390    1.1690   -1.4037 N   0  0  0  0  0  0  0  0  0  0  0  0
   -1.5687    0.4611   -1.4282 C   0  0  0  0  0  0  0  0  0  0  0  0
   -0.9678    0.3036   -2.4884 O   0  0  0  0  0  0  0  0  0  0  0  0
   -1.1374   -0.1625   -0.1057 C   0  0  0  0  0  0  0  0  0  0  0  0
   -1.9053   -1.5175   -0.0235 C   0  0  0  0  0  0  0  0  0  0  0  0
   -1.5620   -2.3997    1.1720 C   0  0  0  0  0  0  0  0  0  0  0  0
    0.3973   -0.3903   -0.0795 C   0  0  0  0  0  0  0  0  0  0  0  0
    1.2349    0.8922   -0.2552 C   0  0  0  0  0  0  0  0  0  0  0  0
    2.7631    0.6883   -0.1995 C   0  0  0  0  0  0  0  0  0  0  0  0
    3.2726   -0.2193   -1.3188 C   0  0  0  0  0  0  0  0  0  0  0  0
    3.2359    0.1775    1.1615 C   0  0  0  0  0  0  0  0  0  0  0  0
   -3.0678    1.9171    1.6897 H   0  0  0  0  0  0  0  0  0  0  0  0
   -3.0094    1.5905   -2.2824 H   0  0  0  0  0  0  0  0  0  0  0  0
   -2.9883   -1.3356   -0.0043 H   0  0  0  0  0  0  0  0  0  0  0  0
   -1.7185   -2.0973   -0.9377 H   0  0  0  0  0  0  0  0  0  0  0  0
   -2.2028   -3.2879    1.1718 H   0  0  0  0  0  0  0  0  0  0  0  0
   -0.5261   -2.7477    1.1322 H   0  0  0  0  0  0  0  0  0  0  0  0
   -1.7210   -1.8771    2.1194 H   0  0  0  0  0  0  0  0  0  0  0  0
    0.6632   -1.1039   -0.8687 H   0  0  0  0  0  0  0  0  0  0  0  0
    0.6782   -0.8526    0.8728 H   0  0  0  0  0  0  0  0  0  0  0  0
    0.9606    1.6204    0.5170 H   0  0  0  0  0  0  0  0  0  0  0  0
    0.9937    1.3644   -1.2143 H   0  0  0  0  0  0  0  0  0  0  0  0
    3.2172    1.6769   -0.3502 H   0  0  0  0  0  0  0  0  0  0  0  0
    4.3678   -0.2224   -1.3404 H   0  0  0  0  0  0  0  0  0  0  0  0
    2.9212    0.1303   -2.2951 H   0  0  0  0  0  0  0  0  0  0  0  0
    2.9433   -1.2547   -1.1861 H   0  0  0  0  0  0  0  0  0  0  0  0
    4.3300    0.1903    1.2157 H   0  0  0  0  0  0  0  0  0  0  0  0
    2.9099   -0.8506    1.3479 H   0  0  0  0  0  0  0  0  0  0  0  0
    2.8552    0.8104    1.9698 H   0  0  0  0  0  0  0  0  0  0  0  0
  1  2  2  0
  2  3  1  0
  3  4  1  0
  4  5  2  0
  4  6  1  0
  6  7  1  0
  7  8  2  0
  7  9  1  0
  9 10  1  0
 10 11  1  0
  9 12  1  0
 12 13  1  0
 13 14  1  0
 14 15  1  0
 14 16  1  0
  9  2  1  0
  3 17  1  0
  6 18  1  0
 10 19  1  0
 10 20  1  0
 11 21  1  0
 11 22  1  0
 11 23  1  0
 12 24  1  0
 12 25  1  0
 13 26  1  0
 13 27  1  0
 14 28  1  0
 15 29  1  0
 15 30  1  0
 15 31  1  0
 16 32  1  0
 16 33  1  0
 16 34  1  0
M  END
>  <Energy>  (7) 
-122.94398453314352

>  <Real charge>  (7) 
0

>  <Mult>  (7) 
1

$$$$
mol_780 422
     RDKit          3D

 34 34  0  0  0  0  0  0  0  0999 V2000
   -1.5326   -2.2925   -0.2371 O   0  0  0  0  0  0  0  0  0  0  0  0
   -1.4262   -1.1649   -0.7125 C   0  0  0  0  0  0  0  0  0  0  0  0
   -1.4962   -0.9821   -2.0655 N   0  0  0  0  0  0  0  0  0  0  0  0
   -1.9757    0.1539   -2.6372 C   0  0  0  0  0  0  0  0  0  0  0  0
   -2.4714    0.1454   -3.7591 O   0  0  0  0  0  0  0  0  0  0  0  0
   -1.9622    1.2807   -1.8762 N   0  0  0  0  0  0  0  0  0  0  0  0
   -1.8582    1.2903   -0.5120 C   0  0  0  0  0  0  0  0  0  0  0  0
   -2.2565    2.2606    0.1279 O   0  0  0  0  0  0  0  0  0  0  0  0
   -1.1580    0.0878    0.1122 C   0  0  0  0  0  0  0  0  0  0  0  0
   -1.6034   -0.1023    1.5829 C   0  0  0  0  0  0  0  0  0  0  0  0
   -3.1047   -0.3176    1.7738 C   0  0  0  0  0  0  0  0  0  0  0  0
    0.3689    0.4100    0.0223 C   0  0  0  0  0  0  0  0  0  0  0  0
    1.2974   -0.6086    0.7038 C   0  0  0  0  0  0  0  0  0  0  0  0
    2.8061   -0.3642    0.4927 C   0  0  0  0  0  0  0  0  0  0  0  0
    3.2269   -0.5403   -0.9667 C   0  0  0  0  0  0  0  0  0  0  0  0
    3.2587    0.9971    1.0200 C   0  0  0  0  0  0  0  0  0  0  0  0
   -1.6784   -1.8220   -2.5993 H   0  0  0  0  0  0  0  0  0  0  0  0
   -2.4399    2.0754   -2.2801 H   0  0  0  0  0  0  0  0  0  0  0  0
   -1.3041    0.7707    2.1769 H   0  0  0  0  0  0  0  0  0  0  0  0
   -1.0968   -0.9694    2.0231 H   0  0  0  0  0  0  0  0  0  0  0  0
   -3.4596   -1.2001    1.2342 H   0  0  0  0  0  0  0  0  0  0  0  0
   -3.6878    0.5449    1.4400 H   0  0  0  0  0  0  0  0  0  0  0  0
   -3.3232   -0.4696    2.8361 H   0  0  0  0  0  0  0  0  0  0  0  0
    0.6556    0.5056   -1.0320 H   0  0  0  0  0  0  0  0  0  0  0  0
    0.5426    1.3975    0.4700 H   0  0  0  0  0  0  0  0  0  0  0  0
    1.1075   -0.6029    1.7837 H   0  0  0  0  0  0  0  0  0  0  0  0
    1.0622   -1.6194    0.3510 H   0  0  0  0  0  0  0  0  0  0  0  0
    3.3331   -1.1315    1.0756 H   0  0  0  0  0  0  0  0  0  0  0  0
    4.3184   -0.5111   -1.0559 H   0  0  0  0  0  0  0  0  0  0  0  0
    2.8240    0.2500   -1.6075 H   0  0  0  0  0  0  0  0  0  0  0  0
    2.8871   -1.5052   -1.3572 H   0  0  0  0  0  0  0  0  0  0  0  0
    4.3506    1.0777    0.9854 H   0  0  0  0  0  0  0  0  0  0  0  0
    2.9472    1.1355    2.0605 H   0  0  0  0  0  0  0  0  0  0  0  0
    2.8486    1.8204    0.4264 H   0  0  0  0  0  0  0  0  0  0  0  0
  1  2  2  0
  2  3  1  0
  3  4  1  0
  4  5  2  0
  4  6  1  0
  6  7  1  0
  7  8  2  0
  7  9  1  0
  9 10  1  0
 10 11  1  0
  9 12  1  0
 12 13  1  0
 13 14  1  0
 14 15  1  0
 14 16  1  0
  9  2  1  0
  3 17  1  0
  6 18  1  0
 10 19  1  0
 10 20  1  0
 11 21  1  0
 11 22  1  0
 11 23  1  0
 12 24  1  0
 12 25  1  0
 13 26  1  0
 13 27  1  0
 14 28  1  0
 15 29  1  0
 15 30  1  0
 15 31  1  0
 16 32  1  0
 16 33  1  0
 16 34  1  0
M  END
>  <Energy>  (8) 
-122.86477812587569

>  <Real charge>  (8) 
0

>  <Mult>  (8) 
1

$$$$
mol_780 45
     RDKit          3D

 34 34  0  0  0  0  0  0  0  0999 V2000
   -0.8095   -2.3769    0.3621 O   0  0  0  0  0  0  0  0  0  0  0  0
   -1.3922   -1.3343    0.0697 C   0  0  0  0  0  0  0  0  0  0  0  0
   -2.5686   -1.3841   -0.6219 N   0  0  0  0  0  0  0  0  0  0  0  0
   -3.1470   -0.3409   -1.2713 C   0  0  0  0  0  0  0  0  0  0  0  0
   -4.0261   -0.5147   -2.1084 O   0  0  0  0  0  0  0  0  0  0  0  0
   -2.6656    0.8984   -0.9939 N   0  0  0  0  0  0  0  0  0  0  0  0
   -1.4985    1.1677   -0.3381 C   0  0  0  0  0  0  0  0  0  0  0  0
   -1.0080    2.2937   -0.3991 O   0  0  0  0  0  0  0  0  0  0  0  0
   -0.9020    0.0413    0.4887 C   0  0  0  0  0  0  0  0  0  0  0  0
   -1.2885    0.2678    1.9789 C   0  0  0  0  0  0  0  0  0  0  0  0
   -2.7807    0.2562    2.2971 C   0  0  0  0  0  0  0  0  0  0  0  0
    0.6519    0.0910    0.3886 C   0  0  0  0  0  0  0  0  0  0  0  0
    1.1964   -0.1182   -1.0371 C   0  0  0  0  0  0  0  0  0  0  0  0
    2.7326   -0.0738   -1.1651 C   0  0  0  0  0  0  0  0  0  0  0  0
    3.4172   -1.1899   -0.3762 C   0  0  0  0  0  0  0  0  0  0  0  0
    3.3119    1.2874   -0.7800 C   0  0  0  0  0  0  0  0  0  0  0  0
   -2.8753   -2.3040   -0.9082 H   0  0  0  0  0  0  0  0  0  0  0  0
   -3.0434    1.6514   -1.5528 H   0  0  0  0  0  0  0  0  0  0  0  0
   -0.8105   -0.5024    2.5989 H   0  0  0  0  0  0  0  0  0  0  0  0
   -0.8842    1.2315    2.3163 H   0  0  0  0  0  0  0  0  0  0  0  0
   -2.9299    0.4246    3.3690 H   0  0  0  0  0  0  0  0  0  0  0  0
   -3.3146    1.0486    1.7651 H   0  0  0  0  0  0  0  0  0  0  0  0
   -3.2400   -0.7051    2.0509 H   0  0  0  0  0  0  0  0  0  0  0  0
    1.0041    1.0583    0.7674 H   0  0  0  0  0  0  0  0  0  0  0  0
    1.0777   -0.6737    1.0496 H   0  0  0  0  0  0  0  0  0  0  0  0
    0.7776    0.6438   -1.7053 H   0  0  0  0  0  0  0  0  0  0  0  0
    0.8510   -1.0846   -1.4236 H   0  0  0  0  0  0  0  0  0  0  0  0
    2.9642   -0.2369   -2.2262 H   0  0  0  0  0  0  0  0  0  0  0  0
    3.3185   -1.0457    0.7042 H   0  0  0  0  0  0  0  0  0  0  0  0
    4.4875   -1.2210   -0.6077 H   0  0  0  0  0  0  0  0  0  0  0  0
    2.9925   -2.1660   -0.6326 H   0  0  0  0  0  0  0  0  0  0  0  0
    2.8116    2.0933   -1.3268 H   0  0  0  0  0  0  0  0  0  0  0  0
    3.2110    1.4855    0.2917 H   0  0  0  0  0  0  0  0  0  0  0  0
    4.3790    1.3319   -1.0238 H   0  0  0  0  0  0  0  0  0  0  0  0
  1  2  2  0
  2  3  1  0
  3  4  1  0
  4  5  2  0
  4  6  1  0
  6  7  1  0
  7  8  2  0
  7  9  1  0
  9 10  1  0
 10 11  1  0
  9 12  1  0
 12 13  1  0
 13 14  1  0
 14 15  1  0
 14 16  1  0
  9  2  1  0
  3 17  1  0
  6 18  1  0
 10 19  1  0
 10 20  1  0
 11 21  1  0
 11 22  1  0
 11 23  1  0
 12 24  1  0
 12 25  1  0
 13 26  1  0
 13 27  1  0
 14 28  1  0
 15 29  1  0
 15 30  1  0
 15 31  1  0
 16 32  1  0
 16 33  1  0
 16 34  1  0
M  END
>  <Energy>  (9) 
-122.53849273773542

>  <Real charge>  (9) 
0

>  <Mult>  (9) 
1

$$$$
