mol_1 976
     RDKit          3D

 59 61  0  0  0  0  0  0  0  0999 V2000
    0.5004   -1.4397    2.6344 O   0  0  0  0  0  0  0  0  0  0  0  0
   -0.4922   -1.9560    1.7514 C   0  0  0  0  0  0  0  0  0  0  0  0
   -1.5427   -0.8973    1.3989 C   0  0  0  0  0  0  0  0  0  0  0  0
   -2.4153   -1.4700    0.4101 O   0  0  0  0  0  0  0  0  0  0  0  0
   -3.4288   -0.5752   -0.0330 C   0  0  0  0  0  0  0  0  0  0  0  0
   -2.8858    0.5884   -0.6667 O   0  0  0  0  0  0  0  0  0  0  0  0
   -2.4970    0.3864   -2.0311 C   0  0  0  0  0  0  0  0  0  0  0  0
   -1.1155   -0.2783   -2.1967 C   0  0  0  0  0  0  0  0  0  0  0  0
   -0.1230    0.5560   -1.5696 O   0  0  0  0  0  0  0  0  0  0  0  0
    1.1834    0.0010   -1.6487 C   0  0  0  0  0  0  0  0  0  0  0  0
    2.1314    0.8649   -1.0125 O   0  0  0  0  0  0  0  0  0  0  0  0
    1.9983    0.8699    0.4220 C   0  0  0  0  0  0  0  0  0  0  0  0
    1.0562    1.9115    0.8938 C   0  0  0  0  0  0  0  0  0  0  0  0
    0.2958    2.6999    1.2857 N   0  0  0  0  0  0  0  0  0  0  0  0
    3.3903    1.0725    0.9994 C   0  0  0  0  0  0  0  0  0  0  0  0
    3.8447    0.2543    2.0473 C   0  0  0  0  0  0  0  0  0  0  0  0
    5.1167    0.4391    2.5918 C   0  0  0  0  0  0  0  0  0  0  0  0
    5.9479    1.4440    2.1012 C   0  0  0  0  0  0  0  0  0  0  0  0
    5.5091    2.2678    1.0670 C   0  0  0  0  0  0  0  0  0  0  0  0
    4.2381    2.0859    0.5198 C   0  0  0  0  0  0  0  0  0  0  0  0
    1.6296   -0.1194   -3.1183 C   0  0  0  0  0  0  0  0  0  0  0  0
    2.9213   -0.7432   -3.2072 O   0  0  0  0  0  0  0  0  0  0  0  0
    0.6272   -0.9554   -3.9076 C   0  0  0  0  0  0  0  0  0  0  0  0
    0.6976   -2.3313   -3.4829 O   0  0  0  0  0  0  0  0  0  0  0  0
   -0.8035   -0.4533   -3.6963 C   0  0  0  0  0  0  0  0  0  0  0  0
   -1.7177   -1.3786   -4.2906 O   0  0  0  0  0  0  0  0  0  0  0  0
   -4.3083   -0.1063    1.1411 C   0  0  0  0  0  0  0  0  0  0  0  0
   -5.2872    0.8589    0.7137 O   0  0  0  0  0  0  0  0  0  0  0  0
   -3.4438    0.5361    2.2286 C   0  0  0  0  0  0  0  0  0  0  0  0
   -4.2591    0.8027    3.3858 O   0  0  0  0  0  0  0  0  0  0  0  0
   -2.3003   -0.3913    2.6375 C   0  0  0  0  0  0  0  0  0  0  0  0
   -2.8409   -1.4911    3.3877 O   0  0  0  0  0  0  0  0  0  0  0  0
    0.1266   -1.5226    3.5332 H   0  0  0  0  0  0  0  0  0  0  0  0
    0.0151   -2.2856    0.8378 H   0  0  0  0  0  0  0  0  0  0  0  0
   -0.9420   -2.8535    2.1907 H   0  0  0  0  0  0  0  0  0  0  0  0
   -1.0258   -0.0451    0.9475 H   0  0  0  0  0  0  0  0  0  0  0  0
   -4.0715   -1.1047   -0.7461 H   0  0  0  0  0  0  0  0  0  0  0  0
   -3.2816   -0.1634   -2.5631 H   0  0  0  0  0  0  0  0  0  0  0  0
   -2.4549    1.3907   -2.4687 H   0  0  0  0  0  0  0  0  0  0  0  0
   -1.1234   -1.2514   -1.6943 H   0  0  0  0  0  0  0  0  0  0  0  0
    1.2185   -0.9842   -1.1651 H   0  0  0  0  0  0  0  0  0  0  0  0
    1.6442   -0.1132    0.7467 H   0  0  0  0  0  0  0  0  0  0  0  0
    3.2097   -0.5332    2.4516 H   0  0  0  0  0  0  0  0  0  0  0  0
    5.4580   -0.1995    3.4029 H   0  0  0  0  0  0  0  0  0  0  0  0
    6.9369    1.5883    2.5287 H   0  0  0  0  0  0  0  0  0  0  0  0
    6.1556    3.0558    0.6889 H   0  0  0  0  0  0  0  0  0  0  0  0
    3.9094    2.7423   -0.2843 H   0  0  0  0  0  0  0  0  0  0  0  0
    1.7092    0.8785   -3.5668 H   0  0  0  0  0  0  0  0  0  0  0  0
    3.5107   -0.2104   -2.6357 H   0  0  0  0  0  0  0  0  0  0  0  0
    0.8778   -0.9640   -4.9744 H   0  0  0  0  0  0  0  0  0  0  0  0
    1.6502   -2.5594   -3.5396 H   0  0  0  0  0  0  0  0  0  0  0  0
   -0.9131    0.5110   -4.2073 H   0  0  0  0  0  0  0  0  0  0  0  0
   -1.3297   -2.2664   -4.1368 H   0  0  0  0  0  0  0  0  0  0  0  0
   -4.8578   -0.9555    1.5638 H   0  0  0  0  0  0  0  0  0  0  0  0
   -4.8123    1.4655    0.1094 H   0  0  0  0  0  0  0  0  0  0  0  0
   -3.0495    1.5004    1.8865 H   0  0  0  0  0  0  0  0  0  0  0  0
   -5.0600    1.2453    3.0375 H   0  0  0  0  0  0  0  0  0  0  0  0
   -1.6232    0.1369    3.3182 H   0  0  0  0  0  0  0  0  0  0  0  0
   -3.5041   -1.0798    3.9828 H   0  0  0  0  0  0  0  0  0  0  0  0
  1  2  1  0
  2  3  1  0
  3  4  1  0
  4  5  1  0
  5  6  1  0
  6  7  1  0
  7  8  1  0
  8  9  1  0
  9 10  1  0
 10 11  1  0
 11 12  1  0
 12 13  1  0
 13 14  3  0
 12 15  1  0
 15 16  2  0
 16 17  1  0
 17 18  2  0
 18 19  1  0
 19 20  2  0
 10 21  1  0
 21 22  1  0
 21 23  1  0
 23 24  1  0
 23 25  1  0
 25 26  1  0
  5 27  1  0
 27 28  1  0
 27 29  1  0
 29 30  1  0
 29 31  1  0
 31 32  1  0
 20 15  1  0
 25  8  1  0
 31  3  1  0
  1 33  1  0
  2 34  1  0
  2 35  1  0
  3 36  1  0
  5 37  1  0
  7 38  1  0
  7 39  1  0
  8 40  1  0
 10 41  1  0
 12 42  1  0
 16 43  1  0
 17 44  1  0
 18 45  1  0
 19 46  1  0
 20 47  1  0
 21 48  1  0
 22 49  1  0
 23 50  1  0
 24 51  1  0
 25 52  1  0
 26 53  1  0
 27 54  1  0
 28 55  1  0
 29 56  1  0
 30 57  1  0
 31 58  1  0
 32 59  1  0
M  END
>  <Energy>  (1) 
224.39170072692383

>  <Real charge>  (1) 
0

>  <Mult>  (1) 
1

$$$$
mol_1 139
     RDKit          3D

 59 61  0  0  0  0  0  0  0  0999 V2000
   -3.8508    2.4171    2.9444 O   0  0  0  0  0  0  0  0  0  0  0  0
   -3.9927    1.0242    3.1934 C   0  0  0  0  0  0  0  0  0  0  0  0
   -4.0624    0.2087    1.8922 C   0  0  0  0  0  0  0  0  0  0  0  0
   -2.7638    0.1070    1.2667 O   0  0  0  0  0  0  0  0  0  0  0  0
   -2.3452    1.2793    0.5677 C   0  0  0  0  0  0  0  0  0  0  0  0
   -1.0975    1.0040   -0.0912 O   0  0  0  0  0  0  0  0  0  0  0  0
   -0.0329    0.8019    0.8373 C   0  0  0  0  0  0  0  0  0  0  0  0
    0.7958   -0.4231    0.4346 C   0  0  0  0  0  0  0  0  0  0  0  0
    1.8266   -0.5822    1.4303 O   0  0  0  0  0  0  0  0  0  0  0  0
    2.6926   -1.6913    1.1732 C   0  0  0  0  0  0  0  0  0  0  0  0
    3.3885   -1.4991   -0.0591 O   0  0  0  0  0  0  0  0  0  0  0  0
    4.4049   -0.4877    0.0369 C   0  0  0  0  0  0  0  0  0  0  0  0
    5.7104   -1.0649    0.4309 C   0  0  0  0  0  0  0  0  0  0  0  0
    6.7329   -1.4971    0.7759 N   0  0  0  0  0  0  0  0  0  0  0  0
    4.4818    0.2107   -1.3118 C   0  0  0  0  0  0  0  0  0  0  0  0
    4.4959   -0.5241   -2.5100 C   0  0  0  0  0  0  0  0  0  0  0  0
    4.5761    0.1254   -3.7426 C   0  0  0  0  0  0  0  0  0  0  0  0
    4.6475    1.5155   -3.7952 C   0  0  0  0  0  0  0  0  0  0  0  0
    4.6406    2.2583   -2.6164 C   0  0  0  0  0  0  0  0  0  0  0  0
    4.5602    1.6118   -1.3813 C   0  0  0  0  0  0  0  0  0  0  0  0
    1.8925   -3.0050    1.1406 C   0  0  0  0  0  0  0  0  0  0  0  0
    2.7378   -4.1368    0.8956 O   0  0  0  0  0  0  0  0  0  0  0  0
    0.8117   -2.9228    0.0612 C   0  0  0  0  0  0  0  0  0  0  0  0
    0.0131   -4.1190    0.1246 O   0  0  0  0  0  0  0  0  0  0  0  0
   -0.0716   -1.6908    0.2778 C   0  0  0  0  0  0  0  0  0  0  0  0
   -0.8677   -1.9418    1.4522 O   0  0  0  0  0  0  0  0  0  0  0  0
   -3.3470    1.6588   -0.5324 C   0  0  0  0  0  0  0  0  0  0  0  0
   -2.9407    2.8483   -1.2328 O   0  0  0  0  0  0  0  0  0  0  0  0
   -4.7229    1.8942    0.0828 C   0  0  0  0  0  0  0  0  0  0  0  0
   -5.6853    2.0964   -0.9718 O   0  0  0  0  0  0  0  0  0  0  0  0
   -5.1540    0.6871    0.9172 C   0  0  0  0  0  0  0  0  0  0  0  0
   -5.4570   -0.3904    0.0084 O   0  0  0  0  0  0  0  0  0  0  0  0
   -3.8132    2.8589    3.8131 H   0  0  0  0  0  0  0  0  0  0  0  0
   -3.1336    0.7032    3.7916 H   0  0  0  0  0  0  0  0  0  0  0  0
   -4.9083    0.8794    3.7757 H   0  0  0  0  0  0  0  0  0  0  0  0
   -4.2973   -0.8225    2.1846 H   0  0  0  0  0  0  0  0  0  0  0  0
   -2.1764    2.1201    1.2488 H   0  0  0  0  0  0  0  0  0  0  0  0
   -0.3853    0.6980    1.8719 H   0  0  0  0  0  0  0  0  0  0  0  0
    0.6022    1.6955    0.8243 H   0  0  0  0  0  0  0  0  0  0  0  0
    1.2697   -0.2089   -0.5320 H   0  0  0  0  0  0  0  0  0  0  0  0
    3.4216   -1.7568    1.9901 H   0  0  0  0  0  0  0  0  0  0  0  0
    4.1075    0.2593    0.7846 H   0  0  0  0  0  0  0  0  0  0  0  0
    4.4429   -1.6120   -2.4873 H   0  0  0  0  0  0  0  0  0  0  0  0
    4.5863   -0.4553   -4.6617 H   0  0  0  0  0  0  0  0  0  0  0  0
    4.7135    2.0196   -4.7560 H   0  0  0  0  0  0  0  0  0  0  0  0
    4.7027    3.3429   -2.6600 H   0  0  0  0  0  0  0  0  0  0  0  0
    4.5622    2.2140   -0.4750 H   0  0  0  0  0  0  0  0  0  0  0  0
    1.4221   -3.1722    2.1173 H   0  0  0  0  0  0  0  0  0  0  0  0
    2.1351   -4.8508    0.6057 H   0  0  0  0  0  0  0  0  0  0  0  0
    1.2694   -2.9033   -0.9345 H   0  0  0  0  0  0  0  0  0  0  0  0
   -0.6568   -3.9363    0.8171 H   0  0  0  0  0  0  0  0  0  0  0  0
   -0.7716   -1.5955   -0.5603 H   0  0  0  0  0  0  0  0  0  0  0  0
   -1.6155   -1.3041    1.4150 H   0  0  0  0  0  0  0  0  0  0  0  0
   -3.4025    0.8663   -1.2893 H   0  0  0  0  0  0  0  0  0  0  0  0
   -2.0192    2.6772   -1.5112 H   0  0  0  0  0  0  0  0  0  0  0  0
   -4.7242    2.8125    0.6780 H   0  0  0  0  0  0  0  0  0  0  0  0
   -5.2774    2.7701   -1.5540 H   0  0  0  0  0  0  0  0  0  0  0  0
   -6.0887    0.9001    1.4476 H   0  0  0  0  0  0  0  0  0  0  0  0
   -5.9826    0.0284   -0.7061 H   0  0  0  0  0  0  0  0  0  0  0  0
  1  2  1  0
  2  3  1  0
  3  4  1  0
  4  5  1  0
  5  6  1  0
  6  7  1  0
  7  8  1  0
  8  9  1  0
  9 10  1  0
 10 11  1  0
 11 12  1  0
 12 13  1  0
 13 14  3  0
 12 15  1  0
 15 16  2  0
 16 17  1  0
 17 18  2  0
 18 19  1  0
 19 20  2  0
 10 21  1  0
 21 22  1  0
 21 23  1  0
 23 24  1  0
 23 25  1  0
 25 26  1  0
  5 27  1  0
 27 28  1  0
 27 29  1  0
 29 30  1  0
 29 31  1  0
 31 32  1  0
 20 15  1  0
 25  8  1  0
 31  3  1  0
  1 33  1  0
  2 34  1  0
  2 35  1  0
  3 36  1  0
  5 37  1  0
  7 38  1  0
  7 39  1  0
  8 40  1  0
 10 41  1  0
 12 42  1  0
 16 43  1  0
 17 44  1  0
 18 45  1  0
 19 46  1  0
 20 47  1  0
 21 48  1  0
 22 49  1  0
 23 50  1  0
 24 51  1  0
 25 52  1  0
 26 53  1  0
 27 54  1  0
 28 55  1  0
 29 56  1  0
 30 57  1  0
 31 58  1  0
 32 59  1  0
M  END
>  <Energy>  (2) 
225.2616705213112

>  <Real charge>  (2) 
0

>  <Mult>  (2) 
1

$$$$
mol_1 767
     RDKit          3D

 59 61  0  0  0  0  0  0  0  0999 V2000
   -4.2681    1.5499    2.5682 O   0  0  0  0  0  0  0  0  0  0  0  0
   -5.1152    1.7112    1.4365 C   0  0  0  0  0  0  0  0  0  0  0  0
   -4.4205    2.4574    0.2861 C   0  0  0  0  0  0  0  0  0  0  0  0
   -3.4397    1.6267   -0.3653 O   0  0  0  0  0  0  0  0  0  0  0  0
   -2.2092    1.4640    0.3402 C   0  0  0  0  0  0  0  0  0  0  0  0
   -1.2942    0.7234   -0.4839 O   0  0  0  0  0  0  0  0  0  0  0  0
   -1.6905   -0.6515   -0.6071 C   0  0  0  0  0  0  0  0  0  0  0  0
   -0.6441   -1.3912   -1.4514 C   0  0  0  0  0  0  0  0  0  0  0  0
    0.6106   -1.3604   -0.7442 O   0  0  0  0  0  0  0  0  0  0  0  0
    1.6757   -1.9363   -1.4948 C   0  0  0  0  0  0  0  0  0  0  0  0
    2.8811   -1.8882   -0.7268 O   0  0  0  0  0  0  0  0  0  0  0  0
    3.3226   -0.5392   -0.4703 C   0  0  0  0  0  0  0  0  0  0  0  0
    3.9382    0.0684   -1.6728 C   0  0  0  0  0  0  0  0  0  0  0  0
    4.3782    0.5233   -2.6476 N   0  0  0  0  0  0  0  0  0  0  0  0
    4.3059   -0.5970    0.6878 C   0  0  0  0  0  0  0  0  0  0  0  0
    4.1919    0.3065    1.7577 C   0  0  0  0  0  0  0  0  0  0  0  0
    5.1003    0.2714    2.8175 C   0  0  0  0  0  0  0  0  0  0  0  0
    6.1343   -0.6623    2.8214 C   0  0  0  0  0  0  0  0  0  0  0  0
    6.2634   -1.5624    1.7662 C   0  0  0  0  0  0  0  0  0  0  0  0
    5.3572   -1.5303    0.7051 C   0  0  0  0  0  0  0  0  0  0  0  0
    1.3889   -3.4252   -1.7762 C   0  0  0  0  0  0  0  0  0  0  0  0
    1.3329   -4.1800   -0.5449 O   0  0  0  0  0  0  0  0  0  0  0  0
    0.0419   -3.5780   -2.4769 C   0  0  0  0  0  0  0  0  0  0  0  0
   -0.3157   -4.9660   -2.5729 O   0  0  0  0  0  0  0  0  0  0  0  0
   -1.0678   -2.8426   -1.7137 C   0  0  0  0  0  0  0  0  0  0  0  0
   -2.2726   -2.8973   -2.4810 O   0  0  0  0  0  0  0  0  0  0  0  0
   -1.5465    2.8304    0.5919 C   0  0  0  0  0  0  0  0  0  0  0  0
   -1.2599    3.4633   -0.6832 O   0  0  0  0  0  0  0  0  0  0  0  0
   -2.4947    3.7205    1.3940 C   0  0  0  0  0  0  0  0  0  0  0  0
   -1.9192    5.0248    1.5554 O   0  0  0  0  0  0  0  0  0  0  0  0
   -3.8513    3.8336    0.6818 C   0  0  0  0  0  0  0  0  0  0  0  0
   -3.6843    4.6243   -0.5165 O   0  0  0  0  0  0  0  0  0  0  0  0
   -4.7911    1.0858    3.2479 H   0  0  0  0  0  0  0  0  0  0  0  0
   -5.4183    0.7126    1.1050 H   0  0  0  0  0  0  0  0  0  0  0  0
   -6.0032    2.2648    1.7586 H   0  0  0  0  0  0  0  0  0  0  0  0
   -5.1862    2.6197   -0.4830 H   0  0  0  0  0  0  0  0  0  0  0  0
   -2.3564    0.9242    1.2805 H   0  0  0  0  0  0  0  0  0  0  0  0
   -1.7413   -1.0933    0.3950 H   0  0  0  0  0  0  0  0  0  0  0  0
   -2.6759   -0.7031   -1.0818 H   0  0  0  0  0  0  0  0  0  0  0  0
   -0.5229   -0.8430   -2.3954 H   0  0  0  0  0  0  0  0  0  0  0  0
    1.8057   -1.3948   -2.4400 H   0  0  0  0  0  0  0  0  0  0  0  0
    2.4635    0.0666   -0.1573 H   0  0  0  0  0  0  0  0  0  0  0  0
    3.3949    1.0476    1.7775 H   0  0  0  0  0  0  0  0  0  0  0  0
    5.0030    0.9753    3.6406 H   0  0  0  0  0  0  0  0  0  0  0  0
    6.8418   -0.6868    3.6464 H   0  0  0  0  0  0  0  0  0  0  0  0
    7.0724   -2.2887    1.7681 H   0  0  0  0  0  0  0  0  0  0  0  0
    5.4765   -2.2406   -0.1113 H   0  0  0  0  0  0  0  0  0  0  0  0
    2.1946   -3.8758   -2.3656 H   0  0  0  0  0  0  0  0  0  0  0  0
    2.0341   -3.7992    0.0238 H   0  0  0  0  0  0  0  0  0  0  0  0
    0.0999   -3.1958   -3.5028 H   0  0  0  0  0  0  0  0  0  0  0  0
    0.0117   -5.3729   -1.7422 H   0  0  0  0  0  0  0  0  0  0  0  0
   -1.2665   -3.3595   -0.7664 H   0  0  0  0  0  0  0  0  0  0  0  0
   -2.3488   -3.8255   -2.7840 H   0  0  0  0  0  0  0  0  0  0  0  0
   -0.5813    2.7201    1.0977 H   0  0  0  0  0  0  0  0  0  0  0  0
   -0.9055    2.7366   -1.2379 H   0  0  0  0  0  0  0  0  0  0  0  0
   -2.6195    3.3109    2.3997 H   0  0  0  0  0  0  0  0  0  0  0  0
   -1.9121    5.4112    0.6561 H   0  0  0  0  0  0  0  0  0  0  0  0
   -4.5623    4.3895    1.3021 H   0  0  0  0  0  0  0  0  0  0  0  0
   -2.9364    4.2228   -1.0117 H   0  0  0  0  0  0  0  0  0  0  0  0
  1  2  1  0
  2  3  1  0
  3  4  1  0
  4  5  1  0
  5  6  1  0
  6  7  1  0
  7  8  1  0
  8  9  1  0
  9 10  1  0
 10 11  1  0
 11 12  1  0
 12 13  1  0
 13 14  3  0
 12 15  1  0
 15 16  2  0
 16 17  1  0
 17 18  2  0
 18 19  1  0
 19 20  2  0
 10 21  1  0
 21 22  1  0
 21 23  1  0
 23 24  1  0
 23 25  1  0
 25 26  1  0
  5 27  1  0
 27 28  1  0
 27 29  1  0
 29 30  1  0
 29 31  1  0
 31 32  1  0
 20 15  1  0
 25  8  1  0
 31  3  1  0
  1 33  1  0
  2 34  1  0
  2 35  1  0
  3 36  1  0
  5 37  1  0
  7 38  1  0
  7 39  1  0
  8 40  1  0
 10 41  1  0
 12 42  1  0
 16 43  1  0
 17 44  1  0
 18 45  1  0
 19 46  1  0
 20 47  1  0
 21 48  1  0
 22 49  1  0
 23 50  1  0
 24 51  1  0
 25 52  1  0
 26 53  1  0
 27 54  1  0
 28 55  1  0
 29 56  1  0
 30 57  1  0
 31 58  1  0
 32 59  1  0
M  END
>  <Energy>  (3) 
225.3508106376316

>  <Real charge>  (3) 
0

>  <Mult>  (3) 
1

$$$$
