mol_257 6
     RDKit          3D

 18 19  0  0  0  0  0  0  0  0999 V2000
   -2.4206    0.3077   -0.6747 C   0  0  0  0  0  0  0  0  0  0  0  0
   -1.8695   -0.5607   -1.6124 C   0  0  0  0  0  0  0  0  0  0  0  0
   -0.5278   -0.9332   -1.5145 C   0  0  0  0  0  0  0  0  0  0  0  0
    0.2800   -0.4412   -0.4764 C   0  0  0  0  0  0  0  0  0  0  0  0
    1.6315   -0.8059   -0.3634 C   0  0  0  0  0  0  0  0  0  0  0  0
    2.4206   -0.3077    0.6747 C   0  0  0  0  0  0  0  0  0  0  0  0
    1.8695    0.5607    1.6124 C   0  0  0  0  0  0  0  0  0  0  0  0
    0.5278    0.9332    1.5145 C   0  0  0  0  0  0  0  0  0  0  0  0
   -0.2800    0.4412    0.4764 C   0  0  0  0  0  0  0  0  0  0  0  0
   -1.6315    0.8059    0.3634 C   0  0  0  0  0  0  0  0  0  0  0  0
   -3.4651    0.5984   -0.7499 H   0  0  0  0  0  0  0  0  0  0  0  0
   -2.4829   -0.9492   -2.4211 H   0  0  0  0  0  0  0  0  0  0  0  0
   -0.1150   -1.6127   -2.2566 H   0  0  0  0  0  0  0  0  0  0  0  0
    2.0799   -1.4833   -1.0865 H   0  0  0  0  0  0  0  0  0  0  0  0
    3.4651   -0.5984    0.7499 H   0  0  0  0  0  0  0  0  0  0  0  0
    2.4829    0.9492    2.4211 H   0  0  0  0  0  0  0  0  0  0  0  0
    0.1150    1.6127    2.2566 H   0  0  0  0  0  0  0  0  0  0  0  0
   -2.0799    1.4833    1.0865 H   0  0  0  0  0  0  0  0  0  0  0  0
  1  2  2  0
  2  3  1  0
  3  4  2  0
  4  5  1  0
  5  6  2  0
  6  7  1  0
  7  8  2  0
  8  9  1  0
  9 10  2  0
 10  1  1  0
  9  4  1  0
  1 11  1  0
  2 12  1  0
  3 13  1  0
  5 14  1  0
  6 15  1  0
  7 16  1  0
  8 17  1  0
 10 18  1  0
M  END
>  <Energy>  (1) 
31.132836115057838

>  <Real charge>  (1) 
0

>  <Mult>  (1) 
1

$$$$
