mol_886 3
     RDKit          3D

 31 33  0  0  0  0  0  0  0  0999 V2000
   -1.6914   -3.2513    1.9013 O   0  0  0  0  0  0  0  0  0  0  0  0
   -1.5530   -2.0847    1.1067 C   0  0  0  0  0  0  0  0  0  0  0  0
   -0.1622   -1.6962    0.9423 N   0  0  0  0  0  0  0  0  0  0  0  0
    0.1143   -0.5419    0.4379 C   0  0  0  0  0  0  0  0  0  0  0  0
    1.5652   -0.2020    0.3363 C   0  0  0  0  0  0  0  0  0  0  0  0
    2.3205   -0.2804    1.5164 C   0  0  0  0  0  0  0  0  0  0  0  0
    3.6783    0.0394    1.5037 C   0  0  0  0  0  0  0  0  0  0  0  0
    4.2902    0.4275    0.3133 C   0  0  0  0  0  0  0  0  0  0  0  0
    3.5484    0.4844   -0.8686 C   0  0  0  0  0  0  0  0  0  0  0  0
    2.1867    0.1640   -0.8649 C   0  0  0  0  0  0  0  0  0  0  0  0
    1.3584    0.1977   -2.3802 Cl  0  0  0  0  0  0  0  0  0  0  0  0
   -0.8863    0.4683   -0.0273 C   0  0  0  0  0  0  0  0  0  0  0  0
   -0.6231    1.8245    0.2308 C   0  0  0  0  0  0  0  0  0  0  0  0
   -1.4253    2.8114   -0.3366 C   0  0  0  0  0  0  0  0  0  0  0  0
   -1.0872    4.4686   -0.0262 Cl  0  0  0  0  0  0  0  0  0  0  0  0
   -2.4839    2.4663   -1.1698 C   0  0  0  0  0  0  0  0  0  0  0  0
   -2.7628    1.1201   -1.4144 C   0  0  0  0  0  0  0  0  0  0  0  0
   -1.9948    0.1114   -0.8165 C   0  0  0  0  0  0  0  0  0  0  0  0
   -2.3871   -1.2082   -1.0833 N   0  0  0  0  0  0  0  0  0  0  0  0
   -2.1681   -2.3125   -0.2985 C   0  0  0  0  0  0  0  0  0  0  0  0
   -2.5244   -3.4207   -0.7063 O   0  0  0  0  0  0  0  0  0  0  0  0
   -1.2042   -3.9298    1.4018 H   0  0  0  0  0  0  0  0  0  0  0  0
   -2.1288   -1.3086    1.6240 H   0  0  0  0  0  0  0  0  0  0  0  0
    1.8508   -0.5947    2.4468 H   0  0  0  0  0  0  0  0  0  0  0  0
    4.2594   -0.0220    2.4212 H   0  0  0  0  0  0  0  0  0  0  0  0
    5.3502    0.6717    0.3017 H   0  0  0  0  0  0  0  0  0  0  0  0
    4.0440    0.7679   -1.7945 H   0  0  0  0  0  0  0  0  0  0  0  0
    0.2153    2.1201    0.8569 H   0  0  0  0  0  0  0  0  0  0  0  0
   -3.1009    3.2370   -1.6260 H   0  0  0  0  0  0  0  0  0  0  0  0
   -3.6075    0.8708   -2.0537 H   0  0  0  0  0  0  0  0  0  0  0  0
   -2.9908   -1.3980   -1.8742 H   0  0  0  0  0  0  0  0  0  0  0  0
  1  2  1  0
  2  3  1  0
  3  4  2  0
  4  5  1  0
  5  6  2  0
  6  7  1  0
  7  8  2  0
  8  9  1  0
  9 10  2  0
 10 11  1  0
  4 12  1  0
 12 13  2  0
 13 14  1  0
 14 15  1  0
 14 16  2  0
 16 17  1  0
 17 18  2  0
 18 19  1  0
 19 20  1  0
 20 21  2  0
 10  5  1  0
 18 12  1  0
 20  2  1  0
  1 22  1  0
  2 23  1  0
  6 24  1  0
  7 25  1  0
  8 26  1  0
  9 27  1  0
 13 28  1  0
 16 29  1  0
 17 30  1  0
 19 31  1  0
M  END
>  <Energy>  (1) 
99.63365054091227

>  <Real charge>  (1) 
0

>  <Mult>  (1) 
1

$$$$
