mol_174 6
     RDKit          3D

  5  4  0  0  0  0  0  0  0  0999 V2000
   -0.2038    0.0135    0.0102 C   0  0  0  0  0  0  0  0  0  0  0  0
    1.9209   -0.1272   -0.0962 I   0  0  0  0  0  0  0  0  0  0  0  0
   -0.5190    0.0539    1.0731 H   0  0  0  0  0  0  0  0  0  0  0  0
   -0.6580   -0.8738   -0.4767 H   0  0  0  0  0  0  0  0  0  0  0  0
   -0.5400    0.9337   -0.5104 H   0  0  0  0  0  0  0  0  0  0  0  0
  1  2  1  0
  1  3  1  0
  1  4  1  0
  1  5  1  0
M  END
>  <Energy>  (1) 
1.0236017669126399e-07

>  <Real charge>  (1) 
0

>  <Mult>  (1) 
1

$$$$
