mol_740 11
     RDKit          3D

 27 27  0  0  0  0  0  0  0  0999 V2000
    4.0786    0.4439   -0.0813 C   0  0  0  0  0  0  0  0  0  0  0  0
    2.5844    0.3545   -0.2011 C   0  0  0  0  0  0  0  0  0  0  0  0
    2.0207   -0.7781    0.3221 N   0  0  0  0  0  0  0  0  0  0  0  0
    0.6772   -1.0270    0.4087 C   0  0  0  0  0  0  0  0  0  0  0  0
    0.3330   -2.1397    0.7981 O   0  0  0  0  0  0  0  0  0  0  0  0
   -0.1685    0.0080    0.0307 N   0  0  0  0  0  0  0  0  0  0  0  0
    0.3225    0.9493   -0.8755 C   0  0  0  0  0  0  0  0  0  0  0  0
   -0.3583    1.5133   -1.7306 O   0  0  0  0  0  0  0  0  0  0  0  0
    1.7849    1.2522   -0.7901 C   0  0  0  0  0  0  0  0  0  0  0  0
    2.3429    2.7019   -1.5323 Cl  0  0  0  0  0  0  0  0  0  0  0  0
   -1.6568   -0.1764    0.1627 C   0  0  0  0  0  0  0  0  0  0  0  0
   -2.1970   -1.0425   -0.9900 C   0  0  0  0  0  0  0  0  0  0  0  0
   -2.4115    1.1812    0.1696 C   0  0  0  0  0  0  0  0  0  0  0  0
   -2.0450   -0.8406    1.5118 C   0  0  0  0  0  0  0  0  0  0  0  0
    4.4969    1.3571   -0.5123 H   0  0  0  0  0  0  0  0  0  0  0  0
    4.5498   -0.4041   -0.5902 H   0  0  0  0  0  0  0  0  0  0  0  0
    4.3736    0.4168    0.9735 H   0  0  0  0  0  0  0  0  0  0  0  0
    2.6072   -1.5251    0.6795 H   0  0  0  0  0  0  0  0  0  0  0  0
   -1.9997   -0.5832   -1.9643 H   0  0  0  0  0  0  0  0  0  0  0  0
   -3.2800   -1.1857   -0.9032 H   0  0  0  0  0  0  0  0  0  0  0  0
   -1.7299   -2.0333   -0.9986 H   0  0  0  0  0  0  0  0  0  0  0  0
   -1.9500    1.8817    0.8749 H   0  0  0  0  0  0  0  0  0  0  0  0
   -3.4604    1.0534    0.4635 H   0  0  0  0  0  0  0  0  0  0  0  0
   -2.4430    1.6584   -0.8133 H   0  0  0  0  0  0  0  0  0  0  0  0
   -1.5379   -0.3501    2.3504 H   0  0  0  0  0  0  0  0  0  0  0  0
   -1.8089   -1.9075    1.5455 H   0  0  0  0  0  0  0  0  0  0  0  0
   -3.1251   -0.7780    1.6919 H   0  0  0  0  0  0  0  0  0  0  0  0
  1  2  1  0
  2  3  1  0
  3  4  1  0
  4  5  2  0
  4  6  1  0
  6  7  1  0
  7  8  2  0
  7  9  1  0
  9 10  1  0
  6 11  1  0
 11 12  1  0
 11 13  1  0
 11 14  1  0
  9  2  2  0
  1 15  1  0
  1 16  1  0
  1 17  1  0
  3 18  1  0
 12 19  1  0
 12 20  1  0
 12 21  1  0
 13 22  1  0
 13 23  1  0
 13 24  1  0
 14 25  1  0
 14 26  1  0
 14 27  1  0
M  END
>  <Energy>  (1) 
-28.67511749688254

>  <Real charge>  (1) 
0

>  <Mult>  (1) 
1

$$$$
