mol_883 108
     RDKit          3D

 13 12  0  0  0  0  0  0  0  0999 V2000
    2.3433    0.0447    0.3651 C   0  0  0  0  0  0  0  0  0  0  0  0
    1.0476   -0.1626    0.6348 C   0  0  0  0  0  0  0  0  0  0  0  0
   -0.0687    0.7282    0.1735 C   0  0  0  0  0  0  0  0  0  0  0  0
   -1.0074   -0.0091   -0.7363 C   0  0  0  0  0  0  0  0  0  0  0  0
   -2.3014   -0.2318   -0.4709 C   0  0  0  0  0  0  0  0  0  0  0  0
    2.6753    0.8921   -0.2266 H   0  0  0  0  0  0  0  0  0  0  0  0
    3.1025   -0.6385    0.7335 H   0  0  0  0  0  0  0  0  0  0  0  0
    0.7658   -1.0254    1.2353 H   0  0  0  0  0  0  0  0  0  0  0  0
    0.3225    1.6014   -0.3623 H   0  0  0  0  0  0  0  0  0  0  0  0
   -0.5969    1.1106    1.0552 H   0  0  0  0  0  0  0  0  0  0  0  0
   -0.5918   -0.3720   -1.6745 H   0  0  0  0  0  0  0  0  0  0  0  0
   -2.7634    0.1125    0.4491 H   0  0  0  0  0  0  0  0  0  0  0  0
   -2.9272   -0.7705   -1.1758 H   0  0  0  0  0  0  0  0  0  0  0  0
  1  2  2  3
  2  3  1  0
  3  4  1  0
  4  5  2  3
  1  6  1  0
  1  7  1  0
  2  8  1  0
  3  9  1  0
  3 10  1  0
  4 11  1  0
  5 12  1  0
  5 13  1  0
M  END
>  <Energy>  (1) 
14.83516554770834

>  <Real charge>  (1) 
0

>  <Mult>  (1) 
1

$$$$
mol_883 19
     RDKit          3D

 13 12  0  0  0  0  0  0  0  0999 V2000
    2.1887    0.4145    0.0387 C   0  0  0  0  0  0  0  0  0  0  0  0
    1.2250   -0.4988   -0.1401 C   0  0  0  0  0  0  0  0  0  0  0  0
   -0.1147   -0.2077   -0.7516 C   0  0  0  0  0  0  0  0  0  0  0  0
   -1.2265   -0.4632    0.2242 C   0  0  0  0  0  0  0  0  0  0  0  0
   -2.0703    0.4763    0.6715 C   0  0  0  0  0  0  0  0  0  0  0  0
    2.0512    1.4525   -0.2478 H   0  0  0  0  0  0  0  0  0  0  0  0
    3.1390    0.1386    0.4852 H   0  0  0  0  0  0  0  0  0  0  0  0
    1.4136   -1.5264    0.1635 H   0  0  0  0  0  0  0  0  0  0  0  0
   -0.2535   -0.8595   -1.6222 H   0  0  0  0  0  0  0  0  0  0  0  0
   -0.1551    0.8232   -1.1244 H   0  0  0  0  0  0  0  0  0  0  0  0
   -1.3478   -1.4863    0.5738 H   0  0  0  0  0  0  0  0  0  0  0  0
   -2.8572    0.2257    1.3761 H   0  0  0  0  0  0  0  0  0  0  0  0
   -1.9925    1.5112    0.3531 H   0  0  0  0  0  0  0  0  0  0  0  0
  1  2  2  3
  2  3  1  0
  3  4  1  0
  4  5  2  3
  1  6  1  0
  1  7  1  0
  2  8  1  0
  3  9  1  0
  3 10  1  0
  4 11  1  0
  5 12  1  0
  5 13  1  0
M  END
>  <Energy>  (2) 
15.26482345639819

>  <Real charge>  (2) 
0

>  <Mult>  (2) 
1

$$$$
mol_883 104
     RDKit          3D

 13 12  0  0  0  0  0  0  0  0999 V2000
    1.8546    1.0606    0.3041 C   0  0  0  0  0  0  0  0  0  0  0  0
    0.9208    0.2927    0.8814 C   0  0  0  0  0  0  0  0  0  0  0  0
    0.2979   -0.9142    0.2399 C   0  0  0  0  0  0  0  0  0  0  0  0
   -1.1800   -0.8042   -0.0288 C   0  0  0  0  0  0  0  0  0  0  0  0
   -1.9718    0.2660    0.1291 C   0  0  0  0  0  0  0  0  0  0  0  0
    2.2695    1.9171    0.8264 H   0  0  0  0  0  0  0  0  0  0  0  0
    2.2201    0.8577   -0.6977 H   0  0  0  0  0  0  0  0  0  0  0  0
    0.5888    0.5345    1.8890 H   0  0  0  0  0  0  0  0  0  0  0  0
    0.4633   -1.7716    0.9035 H   0  0  0  0  0  0  0  0  0  0  0  0
    0.8008   -1.1499   -0.7060 H   0  0  0  0  0  0  0  0  0  0  0  0
   -1.6383   -1.7181   -0.4049 H   0  0  0  0  0  0  0  0  0  0  0  0
   -1.5959    1.2192    0.4861 H   0  0  0  0  0  0  0  0  0  0  0  0
   -3.0298    0.2101   -0.1087 H   0  0  0  0  0  0  0  0  0  0  0  0
  1  2  2  3
  2  3  1  0
  3  4  1  0
  4  5  2  3
  1  6  1  0
  1  7  1  0
  2  8  1  0
  3  9  1  0
  3 10  1  0
  4 11  1  0
  5 12  1  0
  5 13  1  0
M  END
>  <Energy>  (3) 
15.550366222153256

>  <Real charge>  (3) 
0

>  <Mult>  (3) 
1

$$$$
