mol_312 401
     RDKit          3D

 25 25  0  0  0  0  0  0  0  0999 V2000
   -4.7878    0.4881   -0.0493 C   0  0  0  0  0  0  0  0  0  0  0  0
   -3.3034    0.8059   -0.0229 C   0  0  0  0  0  0  0  0  0  0  0  0
   -2.5886   -0.4257   -0.1105 O   0  0  0  0  0  0  0  0  0  0  0  0
   -1.2237   -0.3518   -0.1134 C   0  0  0  0  0  0  0  0  0  0  0  0
   -0.4620    0.8112   -0.0195 C   0  0  0  0  0  0  0  0  0  0  0  0
    0.9387    0.7444   -0.0341 C   0  0  0  0  0  0  0  0  0  0  0  0
    1.5922   -0.4834   -0.1460 C   0  0  0  0  0  0  0  0  0  0  0  0
    2.9924   -0.6270   -0.1590 N   0  0  0  0  0  0  0  0  0  0  0  0
    3.9339    0.3655   -0.2008 C   0  0  0  0  0  0  0  0  0  0  0  0
    5.2009   -0.1391   -0.1243 N   0  0  0  0  0  0  0  0  0  0  0  0
    3.7690    1.5717   -0.3004 O   0  0  0  0  0  0  0  0  0  0  0  0
    0.8245   -1.6486   -0.2351 C   0  0  0  0  0  0  0  0  0  0  0  0
   -0.5720   -1.5807   -0.2198 C   0  0  0  0  0  0  0  0  0  0  0  0
   -5.0563   -0.1691    0.7845 H   0  0  0  0  0  0  0  0  0  0  0  0
   -5.3836    1.4029    0.0159 H   0  0  0  0  0  0  0  0  0  0  0  0
   -5.0524   -0.0414   -0.9706 H   0  0  0  0  0  0  0  0  0  0  0  0
   -3.0643    1.3184    0.9161 H   0  0  0  0  0  0  0  0  0  0  0  0
   -3.0603    1.4491   -0.8765 H   0  0  0  0  0  0  0  0  0  0  0  0
   -0.9186    1.7914    0.0674 H   0  0  0  0  0  0  0  0  0  0  0  0
    1.4919    1.6755    0.0466 H   0  0  0  0  0  0  0  0  0  0  0  0
    3.3537   -1.5609   -0.2822 H   0  0  0  0  0  0  0  0  0  0  0  0
    5.8925    0.5994   -0.0620 H   0  0  0  0  0  0  0  0  0  0  0  0
    5.3445   -0.8777    0.5491 H   0  0  0  0  0  0  0  0  0  0  0  0
    1.2955   -2.6239   -0.3199 H   0  0  0  0  0  0  0  0  0  0  0  0
   -1.1569   -2.4943   -0.2925 H   0  0  0  0  0  0  0  0  0  0  0  0
  1  2  1  0
  2  3  1  0
  3  4  1  0
  4  5  2  0
  5  6  1  0
  6  7  2  0
  7  8  1  0
  8  9  1  0
  9 10  1  0
  9 11  2  0
  7 12  1  0
 12 13  2  0
 13  4  1  0
  1 14  1  0
  1 15  1  0
  1 16  1  0
  2 17  1  0
  2 18  1  0
  5 19  1  0
  6 20  1  0
  8 21  1  0
 10 22  1  0
 10 23  1  0
 12 24  1  0
 13 25  1  0
M  END
>  <Energy>  (1) 
-70.29823143772491

>  <Real charge>  (1) 
0

>  <Mult>  (1) 
1

$$$$
mol_312 95
     RDKit          3D

 25 25  0  0  0  0  0  0  0  0999 V2000
   -4.8261   -0.3120    0.1213 C   0  0  0  0  0  0  0  0  0  0  0  0
   -3.4086   -0.5805   -0.3512 C   0  0  0  0  0  0  0  0  0  0  0  0
   -2.5209    0.1787    0.4669 O   0  0  0  0  0  0  0  0  0  0  0  0
   -1.1852    0.0829    0.1937 C   0  0  0  0  0  0  0  0  0  0  0  0
   -0.3633    0.8596    1.0115 C   0  0  0  0  0  0  0  0  0  0  0  0
    1.0263    0.8585    0.8439 C   0  0  0  0  0  0  0  0  0  0  0  0
    1.6132    0.0783   -0.1508 C   0  0  0  0  0  0  0  0  0  0  0  0
    3.0008    0.0130   -0.3785 N   0  0  0  0  0  0  0  0  0  0  0  0
    3.9792    0.7719    0.2048 C   0  0  0  0  0  0  0  0  0  0  0  0
    5.2251    0.3805   -0.1961 N   0  0  0  0  0  0  0  0  0  0  0  0
    3.8612    1.7034    0.9860 O   0  0  0  0  0  0  0  0  0  0  0  0
    0.7884   -0.7044   -0.9674 C   0  0  0  0  0  0  0  0  0  0  0  0
   -0.6026   -0.7021   -0.7987 C   0  0  0  0  0  0  0  0  0  0  0  0
   -5.5494   -0.8736   -0.4765 H   0  0  0  0  0  0  0  0  0  0  0  0
   -4.9418   -0.5937    1.1732 H   0  0  0  0  0  0  0  0  0  0  0  0
   -5.0607    0.7553    0.0496 H   0  0  0  0  0  0  0  0  0  0  0  0
   -3.3168   -0.2737   -1.3995 H   0  0  0  0  0  0  0  0  0  0  0  0
   -3.1953   -1.6511   -0.2518 H   0  0  0  0  0  0  0  0  0  0  0  0
   -0.8055    1.4757    1.7910 H   0  0  0  0  0  0  0  0  0  0  0  0
    1.6201    1.4770    1.5099 H   0  0  0  0  0  0  0  0  0  0  0  0
    3.3114   -0.5585   -1.1495 H   0  0  0  0  0  0  0  0  0  0  0  0
    5.9498    0.8819    0.3052 H   0  0  0  0  0  0  0  0  0  0  0  0
    5.3847   -0.6158   -0.2339 H   0  0  0  0  0  0  0  0  0  0  0  0
    1.2136   -1.3272   -1.7501 H   0  0  0  0  0  0  0  0  0  0  0  0
   -1.1974   -1.3242   -1.4586 H   0  0  0  0  0  0  0  0  0  0  0  0
  1  2  1  0
  2  3  1  0
  3  4  1  0
  4  5  2  0
  5  6  1  0
  6  7  2  0
  7  8  1  0
  8  9  1  0
  9 10  1  0
  9 11  2  0
  7 12  1  0
 12 13  2  0
 13  4  1  0
  1 14  1  0
  1 15  1  0
  1 16  1  0
  2 17  1  0
  2 18  1  0
  5 19  1  0
  6 20  1  0
  8 21  1  0
 10 22  1  0
 10 23  1  0
 12 24  1  0
 13 25  1  0
M  END
>  <Energy>  (2) 
-69.6975862299821

>  <Real charge>  (2) 
0

>  <Mult>  (2) 
1

$$$$
