mol_647 145
     RDKit          3D

 24 24  0  0  0  0  0  0  0  0999 V2000
   -2.1309    2.7466    0.1367 C   0  0  0  0  0  0  0  0  0  0  0  0
   -1.2040    1.7638   -0.2819 O   0  0  0  0  0  0  0  0  0  0  0  0
   -1.3829    0.2526    0.2759 P   0  0  0  0  0  5  0  0  0  0  0  0
   -1.2675    0.0274    2.1996 S   0  0  0  0  0  0  0  0  0  0  0  0
   -2.7873   -0.1635   -0.4164 O   0  0  0  0  0  0  0  0  0  0  0  0
   -3.1920   -1.5170   -0.3443 C   0  0  0  0  0  0  0  0  0  0  0  0
   -0.3204   -0.5592   -0.6442 O   0  0  0  0  0  0  0  0  0  0  0  0
    1.0197   -0.5411   -0.3679 C   0  0  0  0  0  0  0  0  0  0  0  0
    1.7589    0.6239   -0.5683 C   0  0  0  0  0  0  0  0  0  0  0  0
    3.1309    0.6296   -0.2978 C   0  0  0  0  0  0  0  0  0  0  0  0
    3.9927    2.1037   -0.5594 Cl  0  0  0  0  0  0  0  0  0  0  0  0
    3.7591   -0.5354    0.1627 C   0  0  0  0  0  0  0  0  0  0  0  0
    5.4495   -0.5964    0.5142 Cl  0  0  0  0  0  0  0  0  0  0  0  0
    3.0163   -1.7057    0.3450 C   0  0  0  0  0  0  0  0  0  0  0  0
    1.6486   -1.7088    0.0733 C   0  0  0  0  0  0  0  0  0  0  0  0
    0.7590   -3.1699    0.2950 Cl  0  0  0  0  0  0  0  0  0  0  0  0
   -3.1574    2.3855    0.0332 H   0  0  0  0  0  0  0  0  0  0  0  0
   -1.9366    3.0271    1.1748 H   0  0  0  0  0  0  0  0  0  0  0  0
   -2.0065    3.6315   -0.4928 H   0  0  0  0  0  0  0  0  0  0  0  0
   -3.4608   -1.7772    0.6824 H   0  0  0  0  0  0  0  0  0  0  0  0
   -2.3982   -2.1779   -0.7018 H   0  0  0  0  0  0  0  0  0  0  0  0
   -4.0709   -1.6510   -0.9800 H   0  0  0  0  0  0  0  0  0  0  0  0
    1.2773    1.5237   -0.9430 H   0  0  0  0  0  0  0  0  0  0  0  0
    3.5033   -2.6122    0.6967 H   0  0  0  0  0  0  0  0  0  0  0  0
  1  2  1  0
  2  3  1  0
  3  4  2  0
  3  5  1  0
  5  6  1  0
  3  7  1  0
  7  8  1  0
  8  9  2  0
  9 10  1  0
 10 11  1  0
 10 12  2  0
 12 13  1  0
 12 14  1  0
 14 15  2  0
 15 16  1  0
 15  8  1  0
  1 17  1  0
  1 18  1  0
  1 19  1  0
  6 20  1  0
  6 21  1  0
  6 22  1  0
  9 23  1  0
 14 24  1  0
M  END
>  <Energy>  (1) 
-34.539090563829966

>  <Real charge>  (1) 
0

>  <Mult>  (1) 
1

$$$$
mol_647 89
     RDKit          3D

 24 24  0  0  0  0  0  0  0  0999 V2000
   -2.0237    2.8388   -0.3447 C   0  0  0  0  0  0  0  0  0  0  0  0
   -1.1002    1.8409    0.0447 O   0  0  0  0  0  0  0  0  0  0  0  0
   -1.4432    0.2976   -0.3090 P   0  0  0  0  0  5  0  0  0  0  0  0
   -1.6147   -0.1500   -2.1884 S   0  0  0  0  0  0  0  0  0  0  0  0
   -2.7593    0.0606    0.6059 O   0  0  0  0  0  0  0  0  0  0  0  0
   -3.2518   -1.2582    0.7431 C   0  0  0  0  0  0  0  0  0  0  0  0
   -0.3208   -0.4955    0.5384 O   0  0  0  0  0  0  0  0  0  0  0  0
    1.0179   -0.5549    0.2609 C   0  0  0  0  0  0  0  0  0  0  0  0
    1.6862    0.4154   -0.4867 C   0  0  0  0  0  0  0  0  0  0  0  0
    3.0625    0.2980   -0.7210 C   0  0  0  0  0  0  0  0  0  0  0  0
    3.8242    1.5382   -1.6531 Cl  0  0  0  0  0  0  0  0  0  0  0  0
    3.7736   -0.7904   -0.2027 C   0  0  0  0  0  0  0  0  0  0  0  0
    5.4704   -0.9934   -0.4539 Cl  0  0  0  0  0  0  0  0  0  0  0  0
    3.1091   -1.7583    0.5522 C   0  0  0  0  0  0  0  0  0  0  0  0
    1.7382   -1.6372    0.7845 C   0  0  0  0  0  0  0  0  0  0  0  0
    0.9557   -2.8602    1.7213 Cl  0  0  0  0  0  0  0  0  0  0  0  0
   -1.9917    2.9778   -1.4281 H   0  0  0  0  0  0  0  0  0  0  0  0
   -1.7421    3.7791    0.1361 H   0  0  0  0  0  0  0  0  0  0  0  0
   -3.0374    2.5760   -0.0316 H   0  0  0  0  0  0  0  0  0  0  0  0
   -2.4485   -1.9478    1.0152 H   0  0  0  0  0  0  0  0  0  0  0  0
   -4.0041   -1.2674    1.5360 H   0  0  0  0  0  0  0  0  0  0  0  0
   -3.7222   -1.5825   -0.1884 H   0  0  0  0  0  0  0  0  0  0  0  0
    1.1643    1.2784   -0.8895 H   0  0  0  0  0  0  0  0  0  0  0  0
    3.6575   -2.6048    0.9589 H   0  0  0  0  0  0  0  0  0  0  0  0
  1  2  1  0
  2  3  1  0
  3  4  2  0
  3  5  1  0
  5  6  1  0
  3  7  1  0
  7  8  1  0
  8  9  2  0
  9 10  1  0
 10 11  1  0
 10 12  2  0
 12 13  1  0
 12 14  1  0
 14 15  2  0
 15 16  1  0
 15  8  1  0
  1 17  1  0
  1 18  1  0
  1 19  1  0
  6 20  1  0
  6 21  1  0
  6 22  1  0
  9 23  1  0
 14 24  1  0
M  END
>  <Energy>  (2) 
-34.297983112241276

>  <Real charge>  (2) 
0

>  <Mult>  (2) 
1

$$$$
mol_647 91
     RDKit          3D

 24 24  0  0  0  0  0  0  0  0999 V2000
   -2.2758    1.8736    1.2241 C   0  0  0  0  0  0  0  0  0  0  0  0
   -1.2075    1.0297    0.8442 O   0  0  0  0  0  0  0  0  0  0  0  0
   -1.4709   -0.0757   -0.3094 P   0  0  0  0  0  5  0  0  0  0  0  0
   -1.9418    0.6061   -2.0631 S   0  0  0  0  0  0  0  0  0  0  0  0
   -2.5693   -1.0243    0.4096 O   0  0  0  0  0  0  0  0  0  0  0  0
   -2.9149   -2.2453   -0.2136 C   0  0  0  0  0  0  0  0  0  0  0  0
   -0.1386   -1.0012   -0.2192 O   0  0  0  0  0  0  0  0  0  0  0  0
    1.1094   -0.4401   -0.2053 C   0  0  0  0  0  0  0  0  0  0  0  0
    1.7031   -0.0570   -1.4073 C   0  0  0  0  0  0  0  0  0  0  0  0
    2.9865    0.4984   -1.4005 C   0  0  0  0  0  0  0  0  0  0  0  0
    3.6680    0.9619   -2.9184 Cl  0  0  0  0  0  0  0  0  0  0  0  0
    3.6750    0.6560   -0.1902 C   0  0  0  0  0  0  0  0  0  0  0  0
    5.2618    1.3348   -0.1107 Cl  0  0  0  0  0  0  0  0  0  0  0  0
    3.0834    0.2495    1.0096 C   0  0  0  0  0  0  0  0  0  0  0  0
    1.8040   -0.3055    1.0003 C   0  0  0  0  0  0  0  0  0  0  0  0
    1.1160   -0.8272    2.4933 Cl  0  0  0  0  0  0  0  0  0  0  0  0
   -1.9828    2.4214    2.1234 H   0  0  0  0  0  0  0  0  0  0  0  0
   -2.4871    2.5943    0.4303 H   0  0  0  0  0  0  0  0  0  0  0  0
   -3.1729    1.2905    1.4472 H   0  0  0  0  0  0  0  0  0  0  0  0
   -3.5230   -2.0553   -1.1014 H   0  0  0  0  0  0  0  0  0  0  0  0
   -3.5014   -2.8413    0.4904 H   0  0  0  0  0  0  0  0  0  0  0  0
   -2.0198   -2.8094   -0.4881 H   0  0  0  0  0  0  0  0  0  0  0  0
    1.1773   -0.1942   -2.3492 H   0  0  0  0  0  0  0  0  0  0  0  0
    3.6213    0.3606    1.9482 H   0  0  0  0  0  0  0  0  0  0  0  0
  1  2  1  0
  2  3  1  0
  3  4  2  0
  3  5  1  0
  5  6  1  0
  3  7  1  0
  7  8  1  0
  8  9  2  0
  9 10  1  0
 10 11  1  0
 10 12  2  0
 12 13  1  0
 12 14  1  0
 14 15  2  0
 15 16  1  0
 15  8  1  0
  1 17  1  0
  1 18  1  0
  1 19  1  0
  6 20  1  0
  6 21  1  0
  6 22  1  0
  9 23  1  0
 14 24  1  0
M  END
>  <Energy>  (3) 
-33.55503203877583

>  <Real charge>  (3) 
0

>  <Mult>  (3) 
1

$$$$
