mol_739 163
     RDKit          3D

 25 25  0  0  0  0  0  0  0  0999 V2000
    5.0341    0.6327    0.2234 C   0  0  0  0  0  0  0  0  0  0  0  0
    4.0442   -0.4311   -0.2095 C   0  0  0  0  0  0  0  0  0  0  0  0
    2.7215    0.0720    0.0120 O   0  0  0  0  0  0  0  0  0  0  0  0
    1.7380   -0.7937   -0.3392 C   0  0  0  0  0  0  0  0  0  0  0  0
    1.8848   -1.9114   -0.8043 O   0  0  0  0  0  0  0  0  0  0  0  0
    0.4409   -0.1462   -0.0582 C   0  0  0  0  0  0  0  0  0  0  0  0
   -0.7023   -0.8015   -0.3099 C   0  0  0  0  0  0  0  0  0  0  0  0
   -2.0396   -0.2389   -0.0795 C   0  0  0  0  0  0  0  0  0  0  0  0
   -2.3294    0.5889    1.0134 C   0  0  0  0  0  0  0  0  0  0  0  0
   -3.6229    1.0805    1.2097 C   0  0  0  0  0  0  0  0  0  0  0  0
   -4.6416    0.7415    0.3219 C   0  0  0  0  0  0  0  0  0  0  0  0
   -4.3698   -0.0938   -0.7591 C   0  0  0  0  0  0  0  0  0  0  0  0
   -3.0770   -0.5859   -0.9552 C   0  0  0  0  0  0  0  0  0  0  0  0
    4.8798    1.5566   -0.3438 H   0  0  0  0  0  0  0  0  0  0  0  0
    6.0627    0.2931    0.0726 H   0  0  0  0  0  0  0  0  0  0  0  0
    4.8951    0.8812    1.2808 H   0  0  0  0  0  0  0  0  0  0  0  0
    4.1977   -1.3414    0.3810 H   0  0  0  0  0  0  0  0  0  0  0  0
    4.1822   -0.6535   -1.2737 H   0  0  0  0  0  0  0  0  0  0  0  0
    0.4686    0.8617    0.3358 H   0  0  0  0  0  0  0  0  0  0  0  0
   -0.6755   -1.8052   -0.7323 H   0  0  0  0  0  0  0  0  0  0  0  0
   -1.5584    0.8519    1.7332 H   0  0  0  0  0  0  0  0  0  0  0  0
   -3.8355    1.7231    2.0602 H   0  0  0  0  0  0  0  0  0  0  0  0
   -5.6476    1.1229    0.4758 H   0  0  0  0  0  0  0  0  0  0  0  0
   -5.1638   -0.3652   -1.4501 H   0  0  0  0  0  0  0  0  0  0  0  0
   -2.8863   -1.2380   -1.8050 H   0  0  0  0  0  0  0  0  0  0  0  0
  1  2  1  0
  2  3  1  0
  3  4  1  0
  4  5  2  0
  4  6  1  0
  6  7  2  3
  7  8  1  0
  8  9  2  0
  9 10  1  0
 10 11  2  0
 11 12  1  0
 12 13  2  0
 13  8  1  0
  1 14  1  0
  1 15  1  0
  1 16  1  0
  2 17  1  0
  2 18  1  0
  6 19  1  0
  7 20  1  0
  9 21  1  0
 10 22  1  0
 11 23  1  0
 12 24  1  0
 13 25  1  0
M  END
>  <Energy>  (1) 
7.671665108524847

>  <Real charge>  (1) 
0

>  <Mult>  (1) 
1

$$$$
mol_739 92
     RDKit          3D

 25 25  0  0  0  0  0  0  0  0999 V2000
   -4.7394   -0.5983   -0.1002 C   0  0  0  0  0  0  0  0  0  0  0  0
   -4.0806    0.7682   -0.0766 C   0  0  0  0  0  0  0  0  0  0  0  0
   -2.7178    0.6534    0.3574 O   0  0  0  0  0  0  0  0  0  0  0  0
   -1.8143    0.3875   -0.6187 C   0  0  0  0  0  0  0  0  0  0  0  0
   -2.0448    0.2348   -1.8063 O   0  0  0  0  0  0  0  0  0  0  0  0
   -0.4798    0.3099    0.0096 C   0  0  0  0  0  0  0  0  0  0  0  0
    0.6014    0.0610   -0.7446 C   0  0  0  0  0  0  0  0  0  0  0  0
    1.9661   -0.0506   -0.2127 C   0  0  0  0  0  0  0  0  0  0  0  0
    2.4331    0.7538    0.8354 C   0  0  0  0  0  0  0  0  0  0  0  0
    3.7483    0.6331    1.2926 C   0  0  0  0  0  0  0  0  0  0  0  0
    4.6127   -0.2850    0.7003 C   0  0  0  0  0  0  0  0  0  0  0  0
    4.1652   -1.0788   -0.3532 C   0  0  0  0  0  0  0  0  0  0  0  0
    2.8507   -0.9579   -0.8109 C   0  0  0  0  0  0  0  0  0  0  0  0
   -4.6647   -1.0782    0.8812 H   0  0  0  0  0  0  0  0  0  0  0  0
   -4.2443   -1.2609   -0.8172 H   0  0  0  0  0  0  0  0  0  0  0  0
   -5.7952   -0.5152   -0.3731 H   0  0  0  0  0  0  0  0  0  0  0  0
   -4.1483    1.2628   -1.0525 H   0  0  0  0  0  0  0  0  0  0  0  0
   -4.5934    1.4114    0.6460 H   0  0  0  0  0  0  0  0  0  0  0  0
   -0.4317    0.4463    1.0824 H   0  0  0  0  0  0  0  0  0  0  0  0
    0.4953   -0.0959   -1.8172 H   0  0  0  0  0  0  0  0  0  0  0  0
    1.7864    1.4929    1.3014 H   0  0  0  0  0  0  0  0  0  0  0  0
    4.0989    1.2614    2.1074 H   0  0  0  0  0  0  0  0  0  0  0  0
    5.6358   -0.3774    1.0552 H   0  0  0  0  0  0  0  0  0  0  0  0
    4.8389   -1.7917   -0.8216 H   0  0  0  0  0  0  0  0  0  0  0  0
    2.5216   -1.5864   -1.6358 H   0  0  0  0  0  0  0  0  0  0  0  0
  1  2  1  0
  2  3  1  0
  3  4  1  0
  4  5  2  0
  4  6  1  0
  6  7  2  3
  7  8  1  0
  8  9  2  0
  9 10  1  0
 10 11  2  0
 11 12  1  0
 12 13  2  0
 13  8  1  0
  1 14  1  0
  1 15  1  0
  1 16  1  0
  2 17  1  0
  2 18  1  0
  6 19  1  0
  7 20  1  0
  9 21  1  0
 10 22  1  0
 11 23  1  0
 12 24  1  0
 13 25  1  0
M  END
>  <Energy>  (2) 
8.091969977649308

>  <Real charge>  (2) 
0

>  <Mult>  (2) 
1

$$$$
mol_739 229
     RDKit          3D

 25 25  0  0  0  0  0  0  0  0999 V2000
    4.4056    1.1534   -0.4946 C   0  0  0  0  0  0  0  0  0  0  0  0
    3.8665   -0.2546   -0.3331 C   0  0  0  0  0  0  0  0  0  0  0  0
    2.4419   -0.1756   -0.2084 O   0  0  0  0  0  0  0  0  0  0  0  0
    1.8317   -1.3754   -0.0571 C   0  0  0  0  0  0  0  0  0  0  0  0
    2.3849   -2.4647   -0.0216 O   0  0  0  0  0  0  0  0  0  0  0  0
    0.3659   -1.2385    0.0680 C   0  0  0  0  0  0  0  0  0  0  0  0
   -0.2915   -0.0685    0.0425 C   0  0  0  0  0  0  0  0  0  0  0  0
   -1.7518    0.0493    0.1579 C   0  0  0  0  0  0  0  0  0  0  0  0
   -2.5043   -0.7602    1.0195 C   0  0  0  0  0  0  0  0  0  0  0  0
   -3.8886   -0.5963    1.1203 C   0  0  0  0  0  0  0  0  0  0  0  0
   -4.5327    0.3846    0.3695 C   0  0  0  0  0  0  0  0  0  0  0  0
   -3.7935    1.2062   -0.4783 C   0  0  0  0  0  0  0  0  0  0  0  0
   -2.4095    1.0431   -0.5790 C   0  0  0  0  0  0  0  0  0  0  0  0
    5.4946    1.1453   -0.5941 H   0  0  0  0  0  0  0  0  0  0  0  0
    3.9730    1.6326   -1.3791 H   0  0  0  0  0  0  0  0  0  0  0  0
    4.1336    1.7714    0.3674 H   0  0  0  0  0  0  0  0  0  0  0  0
    4.2921   -0.7126    0.5668 H   0  0  0  0  0  0  0  0  0  0  0  0
    4.1285   -0.8540   -1.2122 H   0  0  0  0  0  0  0  0  0  0  0  0
   -0.1509   -2.1862    0.1730 H   0  0  0  0  0  0  0  0  0  0  0  0
    0.2441    0.8688   -0.0905 H   0  0  0  0  0  0  0  0  0  0  0  0
   -2.0243   -1.5197    1.6316 H   0  0  0  0  0  0  0  0  0  0  0  0
   -4.4623   -1.2317    1.7902 H   0  0  0  0  0  0  0  0  0  0  0  0
   -5.6092    0.5120    0.4491 H   0  0  0  0  0  0  0  0  0  0  0  0
   -4.2929    1.9758   -1.0612 H   0  0  0  0  0  0  0  0  0  0  0  0
   -1.8510    1.6956   -1.2466 H   0  0  0  0  0  0  0  0  0  0  0  0
  1  2  1  0
  2  3  1  0
  3  4  1  0
  4  5  2  0
  4  6  1  0
  6  7  2  3
  7  8  1  0
  8  9  2  0
  9 10  1  0
 10 11  2  0
 11 12  1  0
 12 13  2  0
 13  8  1  0
  1 14  1  0
  1 15  1  0
  1 16  1  0
  2 17  1  0
  2 18  1  0
  6 19  1  0
  7 20  1  0
  9 21  1  0
 10 22  1  0
 11 23  1  0
 12 24  1  0
 13 25  1  0
M  END
>  <Energy>  (3) 
8.481357769239404

>  <Real charge>  (3) 
0

>  <Mult>  (3) 
1

$$$$
