mol_801 119
     RDKit          3D

 13 12  0  0  0  0  0  0  0  0999 V2000
    1.3777   -0.2702    0.0078 C   0  0  0  0  0  0  0  0  0  0  0  0
   -0.0300    0.1645    0.3882 C   0  0  0  0  0  0  0  0  0  0  0  0
   -0.7085    0.9964   -0.6902 C   0  0  0  0  0  0  0  0  0  0  0  0
   -0.8643   -1.0688    0.6439 N   0  0  0  0  0  4  0  0  0  0  0  0
   -1.0306   -1.8597   -0.2943 O   0  0  0  0  0  1  0  0  0  0  0  0
   -1.3261   -1.2008    1.7846 O   0  0  0  0  0  0  0  0  0  0  0  0
    2.0249    0.6032   -0.1252 H   0  0  0  0  0  0  0  0  0  0  0  0
    1.8194   -0.9004    0.7877 H   0  0  0  0  0  0  0  0  0  0  0  0
    1.3917   -0.8407   -0.9276 H   0  0  0  0  0  0  0  0  0  0  0  0
   -0.0036    0.7265    1.3290 H   0  0  0  0  0  0  0  0  0  0  0  0
   -0.1592    1.9292   -0.8560 H   0  0  0  0  0  0  0  0  0  0  0  0
   -1.7329    1.2562   -0.4008 H   0  0  0  0  0  0  0  0  0  0  0  0
   -0.7585    0.4647   -1.6471 H   0  0  0  0  0  0  0  0  0  0  0  0
  1  2  1  0
  2  3  1  0
  2  4  1  0
  4  5  1  0
  4  6  2  0
  1  7  1  0
  1  8  1  0
  1  9  1  0
  2 10  1  0
  3 11  1  0
  3 12  1  0
  3 13  1  0
M  CHG  2   4   1   5  -1
M  END
>  <Energy>  (1) 
4.919575641774499

>  <Real charge>  (1) 
0

>  <Mult>  (1) 
1

$$$$
