mol_1006 7
     RDKit          3D

  6  5  0  0  0  0  0  0  0  0999 V2000
    2.0059    0.6952    0.4739 Cl  0  0  0  0  0  0  0  0  0  0  0  0
    0.6025   -0.2696    0.1268 C   0  0  0  0  0  0  0  0  0  0  0  0
   -0.6025    0.2696   -0.1268 C   0  0  0  0  0  0  0  0  0  0  0  0
   -0.8780    1.9857   -0.1332 Cl  0  0  0  0  0  0  0  0  0  0  0  0
   -2.0059   -0.6952   -0.4739 Cl  0  0  0  0  0  0  0  0  0  0  0  0
    0.8780   -1.9857    0.1332 Cl  0  0  0  0  0  0  0  0  0  0  0  0
  1  2  1  0
  2  3  2  3
  3  4  1  0
  3  5  1  0
  2  6  1  0
M  END
>  <Energy>  (1) 
10.684582813067621

>  <Real charge>  (1) 
0

>  <Mult>  (1) 
1

$$$$
