mol_536 94
     RDKit          3D

 16 16  0  0  0  0  0  0  0  0999 V2000
    2.0255   -0.5152    0.0307 C   0  0  0  0  0  0  0  0  0  0  0  0
    0.6062   -0.3271   -0.4689 C   0  0  0  0  0  0  0  0  0  0  0  0
    0.0095    1.0215   -0.1055 C   0  0  0  0  0  0  0  0  0  0  0  0
   -1.4656    0.7076   -0.1076 C   0  0  0  0  0  0  0  0  0  0  0  0
   -1.4899   -0.6854    0.4850 C   0  0  0  0  0  0  0  0  0  0  0  0
   -0.2538   -1.3172    0.1200 O   0  0  0  0  0  0  0  0  0  0  0  0
    2.6984    0.2351   -0.3949 H   0  0  0  0  0  0  0  0  0  0  0  0
    2.0699   -0.4498    1.1234 H   0  0  0  0  0  0  0  0  0  0  0  0
    2.3947   -1.5108   -0.2376 H   0  0  0  0  0  0  0  0  0  0  0  0
    0.5739   -0.4754   -1.5550 H   0  0  0  0  0  0  0  0  0  0  0  0
    0.2865    1.8123   -0.8081 H   0  0  0  0  0  0  0  0  0  0  0  0
    0.3183    1.3312    0.9003 H   0  0  0  0  0  0  0  0  0  0  0  0
   -1.8389    0.6826   -1.1383 H   0  0  0  0  0  0  0  0  0  0  0  0
   -2.0692    1.4226    0.4575 H   0  0  0  0  0  0  0  0  0  0  0  0
   -1.5347   -0.6499    1.5786 H   0  0  0  0  0  0  0  0  0  0  0  0
   -2.3307   -1.2821    0.1204 H   0  0  0  0  0  0  0  0  0  0  0  0
  1  2  1  0
  2  3  1  0
  3  4  1  0
  4  5  1  0
  5  6  1  0
  6  2  1  0
  1  7  1  0
  1  8  1  0
  1  9  1  0
  2 10  1  0
  3 11  1  0
  3 12  1  0
  4 13  1  0
  4 14  1  0
  5 15  1  0
  5 16  1  0
M  END
>  <Energy>  (1) 
7.26930295796006

>  <Real charge>  (1) 
0

>  <Mult>  (1) 
1

$$$$
mol_536 98
     RDKit          3D

 16 16  0  0  0  0  0  0  0  0999 V2000
    1.8857    0.2967   -0.1432 C   0  0  0  0  0  0  0  0  0  0  0  0
    0.5592    0.5841    0.5468 C   0  0  0  0  0  0  0  0  0  0  0  0
   -0.2236   -0.6782    0.8762 C   0  0  0  0  0  0  0  0  0  0  0  0
   -1.1002   -0.8532   -0.3388 C   0  0  0  0  0  0  0  0  0  0  0  0
   -1.4119    0.5798   -0.7061 C   0  0  0  0  0  0  0  0  0  0  0  0
   -0.2593    1.3550   -0.3506 O   0  0  0  0  0  0  0  0  0  0  0  0
    2.3920    1.2348   -0.3953 H   0  0  0  0  0  0  0  0  0  0  0  0
    2.5458   -0.2940    0.4990 H   0  0  0  0  0  0  0  0  0  0  0  0
    1.7385   -0.2409   -1.0860 H   0  0  0  0  0  0  0  0  0  0  0  0
    0.7428    1.1773    1.4489 H   0  0  0  0  0  0  0  0  0  0  0  0
    0.4046   -1.5472    1.0912 H   0  0  0  0  0  0  0  0  0  0  0  0
   -0.8565   -0.4968    1.7537 H   0  0  0  0  0  0  0  0  0  0  0  0
   -0.5316   -1.3330   -1.1438 H   0  0  0  0  0  0  0  0  0  0  0  0
   -1.9965   -1.4499   -0.1509 H   0  0  0  0  0  0  0  0  0  0  0  0
   -1.6269    0.7050   -1.7709 H   0  0  0  0  0  0  0  0  0  0  0  0
   -2.2622    0.9606   -0.1302 H   0  0  0  0  0  0  0  0  0  0  0  0
  1  2  1  0
  2  3  1  0
  3  4  1  0
  4  5  1  0
  5  6  1  0
  6  2  1  0
  1  7  1  0
  1  8  1  0
  1  9  1  0
  2 10  1  0
  3 11  1  0
  3 12  1  0
  4 13  1  0
  4 14  1  0
  5 15  1  0
  5 16  1  0
M  END
>  <Energy>  (2) 
7.8188313797875315

>  <Real charge>  (2) 
0

>  <Mult>  (2) 
1

$$$$
