mol_165 69
     RDKit          3D

 32 34  0  0  0  0  0  0  0  0999 V2000
   -0.0004    0.5253   -1.7031 O   0  0  0  0  0  0  0  0  0  0  0  0
   -1.0046    0.2574   -0.8087 C   0  0  0  0  0  0  0  0  0  0  0  0
   -2.0243    1.2157   -0.7289 C   0  0  0  0  0  0  0  0  0  0  0  0
   -3.1360    1.0018    0.0874 C   0  0  0  0  0  0  0  0  0  0  0  0
   -4.2375    2.0163    0.1579 C   0  0  0  0  0  0  0  0  0  0  0  0
   -3.2299   -0.2038    0.7840 C   0  0  0  0  0  0  0  0  0  0  0  0
   -2.2159   -1.1660    0.6848 C   0  0  0  0  0  0  0  0  0  0  0  0
   -1.0746   -0.9512   -0.1062 C   0  0  0  0  0  0  0  0  0  0  0  0
   -0.0657   -1.9612   -0.2180 N   0  0  0  0  0  0  0  0  0  0  0  0
   -0.4522   -3.3459    0.0399 C   0  0  0  0  0  0  0  0  0  0  0  0
    1.2995   -1.7339   -0.4509 C   0  0  0  0  0  0  0  0  0  0  0  0
    2.1165   -2.6562   -0.5303 O   0  0  0  0  0  0  0  0  0  0  0  0
    1.8625   -0.3737   -0.5002 C   0  0  0  0  0  0  0  0  0  0  0  0
    3.1414   -0.1452    0.0281 C   0  0  0  0  0  0  0  0  0  0  0  0
    3.7353    1.1112   -0.0759 C   0  0  0  0  0  0  0  0  0  0  0  0
    4.9492    1.3782    0.5644 N   0  0  0  0  0  0  0  0  0  0  0  0
    2.9606    2.1203   -0.6447 C   0  0  0  0  0  0  0  0  0  0  0  0
    1.7331    1.9375   -1.1849 N   0  0  0  0  0  0  0  0  0  0  0  0
    1.2145    0.6883   -1.0953 C   0  0  0  0  0  0  0  0  0  0  0  0
   -1.9382    2.1294   -1.3139 H   0  0  0  0  0  0  0  0  0  0  0  0
   -4.9774    1.8206   -0.6242 H   0  0  0  0  0  0  0  0  0  0  0  0
   -4.7357    1.9846    1.1326 H   0  0  0  0  0  0  0  0  0  0  0  0
   -3.8436    3.0298    0.0277 H   0  0  0  0  0  0  0  0  0  0  0  0
   -4.0947   -0.4080    1.4125 H   0  0  0  0  0  0  0  0  0  0  0  0
   -2.3367   -2.0769    1.2648 H   0  0  0  0  0  0  0  0  0  0  0  0
    0.2499   -4.0499   -0.4174 H   0  0  0  0  0  0  0  0  0  0  0  0
   -1.4396   -3.5535   -0.3850 H   0  0  0  0  0  0  0  0  0  0  0  0
   -0.4541   -3.5193    1.1207 H   0  0  0  0  0  0  0  0  0  0  0  0
    3.6716   -0.9607    0.5146 H   0  0  0  0  0  0  0  0  0  0  0  0
    5.5511    0.5654    0.6683 H   0  0  0  0  0  0  0  0  0  0  0  0
    5.4522    2.1802    0.1951 H   0  0  0  0  0  0  0  0  0  0  0  0
    3.3236    3.1435   -0.6885 H   0  0  0  0  0  0  0  0  0  0  0  0
  1  2  1  0
  2  3  2  0
  3  4  1  0
  4  5  1  0
  4  6  2  0
  6  7  1  0
  7  8  2  0
  8  9  1  0
  9 10  1  0
  9 11  1  0
 11 12  2  0
 11 13  1  0
 13 14  2  0
 14 15  1  0
 15 16  1  0
 15 17  2  0
 17 18  1  0
 18 19  2  0
  8  2  1  0
 19  1  1  0
 19 13  1  0
  3 20  1  0
  5 21  1  0
  5 22  1  0
  5 23  1  0
  6 24  1  0
  7 25  1  0
 10 26  1  0
 10 27  1  0
 10 28  1  0
 14 29  1  0
 16 30  1  0
 16 31  1  0
 17 32  1  0
M  END
>  <Energy>  (1) 
74.23020765041515

>  <Real charge>  (1) 
0

>  <Mult>  (1) 
1

$$$$
mol_165 48
     RDKit          3D

 32 34  0  0  0  0  0  0  0  0999 V2000
    0.1684    0.5789    1.4610 O   0  0  0  0  0  0  0  0  0  0  0  0
   -0.9262    0.2949    0.6858 C   0  0  0  0  0  0  0  0  0  0  0  0
   -1.9376    1.2653    0.6769 C   0  0  0  0  0  0  0  0  0  0  0  0
   -3.1369    1.0335    0.0017 C   0  0  0  0  0  0  0  0  0  0  0  0
   -4.2007    2.0886   -0.0484 C   0  0  0  0  0  0  0  0  0  0  0  0
   -3.3030   -0.1805   -0.6664 C   0  0  0  0  0  0  0  0  0  0  0  0
   -2.2957   -1.1543   -0.6370 C   0  0  0  0  0  0  0  0  0  0  0  0
   -1.0815   -0.9345    0.0351 C   0  0  0  0  0  0  0  0  0  0  0  0
   -0.0800   -1.9566    0.0801 N   0  0  0  0  0  0  0  0  0  0  0  0
   -0.5090   -3.3426   -0.0885 C   0  0  0  0  0  0  0  0  0  0  0  0
    1.3045   -1.7445    0.1671 C   0  0  0  0  0  0  0  0  0  0  0  0
    2.1132   -2.6769    0.1981 O   0  0  0  0  0  0  0  0  0  0  0  0
    1.8869   -0.3929    0.1088 C   0  0  0  0  0  0  0  0  0  0  0  0
    3.1080   -0.2044   -0.5548 C   0  0  0  0  0  0  0  0  0  0  0  0
    3.7251    1.0452   -0.5588 C   0  0  0  0  0  0  0  0  0  0  0  0
    4.8705    1.2691   -1.3286 N   0  0  0  0  0  0  0  0  0  0  0  0
    3.0249    2.0865    0.0472 C   0  0  0  0  0  0  0  0  0  0  0  0
    1.8568    1.9433    0.7157 N   0  0  0  0  0  0  0  0  0  0  0  0
    1.3163    0.7003    0.7264 C   0  0  0  0  0  0  0  0  0  0  0  0
   -1.7762    2.2019    1.2073 H   0  0  0  0  0  0  0  0  0  0  0  0
   -4.1964    2.6914    0.8659 H   0  0  0  0  0  0  0  0  0  0  0  0
   -5.1948    1.6375   -0.1348 H   0  0  0  0  0  0  0  0  0  0  0  0
   -4.0351    2.7465   -0.9071 H   0  0  0  0  0  0  0  0  0  0  0  0
   -4.2203   -0.3832   -1.2158 H   0  0  0  0  0  0  0  0  0  0  0  0
   -2.4796   -2.0768   -1.1810 H   0  0  0  0  0  0  0  0  0  0  0  0
   -0.6167   -3.5541   -1.1571 H   0  0  0  0  0  0  0  0  0  0  0  0
    0.2238   -4.0418    0.3258 H   0  0  0  0  0  0  0  0  0  0  0  0
   -1.4542   -3.5177    0.4355 H   0  0  0  0  0  0  0  0  0  0  0  0
    3.5756   -1.0455   -1.0617 H   0  0  0  0  0  0  0  0  0  0  0  0
    5.4485    0.4434   -1.4623 H   0  0  0  0  0  0  0  0  0  0  0  0
    5.4185    2.0757   -1.0427 H   0  0  0  0  0  0  0  0  0  0  0  0
    3.4032    3.1046    0.0155 H   0  0  0  0  0  0  0  0  0  0  0  0
  1  2  1  0
  2  3  2  0
  3  4  1  0
  4  5  1  0
  4  6  2  0
  6  7  1  0
  7  8  2  0
  8  9  1  0
  9 10  1  0
  9 11  1  0
 11 12  2  0
 11 13  1  0
 13 14  2  0
 14 15  1  0
 15 16  1  0
 15 17  2  0
 17 18  1  0
 18 19  2  0
  8  2  1  0
 19  1  1  0
 19 13  1  0
  3 20  1  0
  5 21  1  0
  5 22  1  0
  5 23  1  0
  6 24  1  0
  7 25  1  0
 10 26  1  0
 10 27  1  0
 10 28  1  0
 14 29  1  0
 16 30  1  0
 16 31  1  0
 17 32  1  0
M  END
>  <Energy>  (2) 
74.2641044547322

>  <Real charge>  (2) 
0

>  <Mult>  (2) 
1

$$$$
mol_165 200
     RDKit          3D

 32 34  0  0  0  0  0  0  0  0999 V2000
    0.2384    0.5471   -1.5912 O   0  0  0  0  0  0  0  0  0  0  0  0
   -0.8816    0.3223   -0.8332 C   0  0  0  0  0  0  0  0  0  0  0  0
   -1.8483    1.3370   -0.8537 C   0  0  0  0  0  0  0  0  0  0  0  0
   -3.0631    1.1723   -0.1865 C   0  0  0  0  0  0  0  0  0  0  0  0
   -4.1071    2.2474   -0.2259 C   0  0  0  0  0  0  0  0  0  0  0  0
   -3.3101   -0.0395    0.4603 C   0  0  0  0  0  0  0  0  0  0  0  0
   -2.3468   -1.0574    0.4605 C   0  0  0  0  0  0  0  0  0  0  0  0
   -1.1058   -0.8935   -0.1776 C   0  0  0  0  0  0  0  0  0  0  0  0
   -0.1481   -1.9574   -0.1911 N   0  0  0  0  0  0  0  0  0  0  0  0
   -0.6392   -3.3228   -0.0247 C   0  0  0  0  0  0  0  0  0  0  0  0
    1.2464   -1.8040   -0.2403 C   0  0  0  0  0  0  0  0  0  0  0  0
    2.0139   -2.7708   -0.2301 O   0  0  0  0  0  0  0  0  0  0  0  0
    1.8825   -0.4760   -0.1832 C   0  0  0  0  0  0  0  0  0  0  0  0
    3.0967   -0.3285    0.5037 C   0  0  0  0  0  0  0  0  0  0  0  0
    3.7300    0.9116    0.5635 C   0  0  0  0  0  0  0  0  0  0  0  0
    4.9938    1.0374    1.1461 N   0  0  0  0  0  0  0  0  0  0  0  0
    3.1547    1.9384   -0.1824 C   0  0  0  0  0  0  0  0  0  0  0  0
    1.9916    1.8363   -0.8671 N   0  0  0  0  0  0  0  0  0  0  0  0
    1.3773    0.6285   -0.8375 C   0  0  0  0  0  0  0  0  0  0  0  0
   -1.6399    2.2549   -1.4001 H   0  0  0  0  0  0  0  0  0  0  0  0
   -4.7242    2.2258    0.6786 H   0  0  0  0  0  0  0  0  0  0  0  0
   -4.7533    2.1103   -1.0984 H   0  0  0  0  0  0  0  0  0  0  0  0
   -3.6448    3.2387   -0.2796 H   0  0  0  0  0  0  0  0  0  0  0  0
   -4.2568   -0.2056    0.9708 H   0  0  0  0  0  0  0  0  0  0  0  0
   -2.5894   -1.9715    0.9955 H   0  0  0  0  0  0  0  0  0  0  0  0
   -0.7838   -3.5214    1.0420 H   0  0  0  0  0  0  0  0  0  0  0  0
   -1.5767   -3.4624   -0.5727 H   0  0  0  0  0  0  0  0  0  0  0  0
    0.0742   -4.0552   -0.4150 H   0  0  0  0  0  0  0  0  0  0  0  0
    3.5458   -1.1936    0.9865 H   0  0  0  0  0  0  0  0  0  0  0  0
    5.2457    1.9832    1.4176 H   0  0  0  0  0  0  0  0  0  0  0  0
    5.1909    0.3593    1.8768 H   0  0  0  0  0  0  0  0  0  0  0  0
    3.6370    2.9092   -0.2580 H   0  0  0  0  0  0  0  0  0  0  0  0
  1  2  1  0
  2  3  2  0
  3  4  1  0
  4  5  1  0
  4  6  2  0
  6  7  1  0
  7  8  2  0
  8  9  1  0
  9 10  1  0
  9 11  1  0
 11 12  2  0
 11 13  1  0
 13 14  2  0
 14 15  1  0
 15 16  1  0
 15 17  2  0
 17 18  1  0
 18 19  2  0
  8  2  1  0
 19  1  1  0
 19 13  1  0
  3 20  1  0
  5 21  1  0
  5 22  1  0
  5 23  1  0
  6 24  1  0
  7 25  1  0
 10 26  1  0
 10 27  1  0
 10 28  1  0
 14 29  1  0
 16 30  1  0
 16 31  1  0
 17 32  1  0
M  END
>  <Energy>  (3) 
74.53232975980394

>  <Real charge>  (3) 
0

>  <Mult>  (3) 
1

$$$$
mol_165 70
     RDKit          3D

 32 34  0  0  0  0  0  0  0  0999 V2000
    0.0408   -0.5289    1.6350 O   0  0  0  0  0  0  0  0  0  0  0  0
   -0.9835   -0.2211    0.7774 C   0  0  0  0  0  0  0  0  0  0  0  0
   -1.9828    0.6154    1.2932 C   0  0  0  0  0  0  0  0  0  0  0  0
   -3.1209    0.9083    0.5401 C   0  0  0  0  0  0  0  0  0  0  0  0
   -4.1690    1.8390    1.0717 C   0  0  0  0  0  0  0  0  0  0  0  0
   -3.2377    0.3550   -0.7359 C   0  0  0  0  0  0  0  0  0  0  0  0
   -2.2442   -0.4964   -1.2376 C   0  0  0  0  0  0  0  0  0  0  0  0
   -1.0912   -0.7974   -0.4932 C   0  0  0  0  0  0  0  0  0  0  0  0
   -0.1045   -1.6950   -1.0121 N   0  0  0  0  0  0  0  0  0  0  0  0
   -0.5274   -2.6742   -2.0100 C   0  0  0  0  0  0  0  0  0  0  0  0
    1.2699   -1.6538   -0.7302 C   0  0  0  0  0  0  0  0  0  0  0  0
    2.0668   -2.4538   -1.2291 O   0  0  0  0  0  0  0  0  0  0  0  0
    1.8619   -0.5755    0.0812 C   0  0  0  0  0  0  0  0  0  0  0  0
    3.1373   -0.0935   -0.2486 C   0  0  0  0  0  0  0  0  0  0  0  0
    3.7295    0.9165    0.5075 C   0  0  0  0  0  0  0  0  0  0  0  0
    5.0437    1.3175    0.2535 N   0  0  0  0  0  0  0  0  0  0  0  0
    3.0411    1.3210    1.6496 C   0  0  0  0  0  0  0  0  0  0  0  0
    1.8151    0.8749    2.0100 N   0  0  0  0  0  0  0  0  0  0  0  0
    1.2504   -0.0570    1.2039 C   0  0  0  0  0  0  0  0  0  0  0  0
   -1.8617    1.0297    2.2923 H   0  0  0  0  0  0  0  0  0  0  0  0
   -5.1551    1.5901    0.6657 H   0  0  0  0  0  0  0  0  0  0  0  0
   -4.2393    1.7662    2.1621 H   0  0  0  0  0  0  0  0  0  0  0  0
   -3.9253    2.8709    0.8008 H   0  0  0  0  0  0  0  0  0  0  0  0
   -4.1060    0.5779   -1.3530 H   0  0  0  0  0  0  0  0  0  0  0  0
   -2.3873   -0.8924   -2.2393 H   0  0  0  0  0  0  0  0  0  0  0  0
   -1.5163   -3.0728   -1.7613 H   0  0  0  0  0  0  0  0  0  0  0  0
   -0.5421   -2.1954   -2.9942 H   0  0  0  0  0  0  0  0  0  0  0  0
    0.1611   -3.5237   -2.0534 H   0  0  0  0  0  0  0  0  0  0  0  0
    3.6659   -0.5192   -1.0986 H   0  0  0  0  0  0  0  0  0  0  0  0
    5.2903    2.2301    0.6251 H   0  0  0  0  0  0  0  0  0  0  0  0
    5.3424    1.1982   -0.7104 H   0  0  0  0  0  0  0  0  0  0  0  0
    3.4781    2.0396    2.3376 H   0  0  0  0  0  0  0  0  0  0  0  0
  1  2  1  0
  2  3  2  0
  3  4  1  0
  4  5  1  0
  4  6  2  0
  6  7  1  0
  7  8  2  0
  8  9  1  0
  9 10  1  0
  9 11  1  0
 11 12  2  0
 11 13  1  0
 13 14  2  0
 14 15  1  0
 15 16  1  0
 15 17  2  0
 17 18  1  0
 18 19  2  0
  8  2  1  0
 19  1  1  0
 19 13  1  0
  3 20  1  0
  5 21  1  0
  5 22  1  0
  5 23  1  0
  6 24  1  0
  7 25  1  0
 10 26  1  0
 10 27  1  0
 10 28  1  0
 14 29  1  0
 16 30  1  0
 16 31  1  0
 17 32  1  0
M  END
>  <Energy>  (4) 
74.57246416545276

>  <Real charge>  (4) 
0

>  <Mult>  (4) 
1

$$$$
