mol_404 7
     RDKit          3D

  5  4  0  0  0  0  0  0  0  0999 V2000
   -1.3863    0.9830   -0.0503 Cl  0  0  0  0  0  0  0  0  0  0  0  0
   -0.0549   -0.1691    0.0043 C   0  0  0  0  0  0  0  0  0  0  0  0
    1.6412    0.7627    0.0014 Br  0  0  0  0  0  0  0  0  0  0  0  0
   -0.1134   -0.7612    0.9199 H   0  0  0  0  0  0  0  0  0  0  0  0
   -0.0867   -0.8154   -0.8753 H   0  0  0  0  0  0  0  0  0  0  0  0
  1  2  1  0
  2  3  1  0
  2  4  1  0
  2  5  1  0
M  END
>  <Energy>  (1) 
0.2141231397809149

>  <Real charge>  (1) 
0

>  <Mult>  (1) 
1

$$$$
