mol_697 153
     RDKit          3D

 39 40  0  0  0  0  0  0  0  0999 V2000
   -6.9458   -0.8837   -0.5492 C   0  0  0  0  0  0  0  0  0  0  0  0
   -6.5769    0.3353    0.0834 O   0  0  0  0  0  0  0  0  0  0  0  0
   -5.2866    0.7551   -0.0888 C   0  0  0  0  0  0  0  0  0  0  0  0
   -4.9797    1.9675    0.5366 C   0  0  0  0  0  0  0  0  0  0  0  0
   -3.6976    2.5124    0.4430 C   0  0  0  0  0  0  0  0  0  0  0  0
   -2.7091    1.8341   -0.2657 C   0  0  0  0  0  0  0  0  0  0  0  0
   -1.4736    2.4343   -0.3496 O   0  0  0  0  0  0  0  0  0  0  0  0
   -0.3739    1.6368   -0.1335 C   0  0  0  0  0  0  0  0  0  0  0  0
    0.6768    1.7375   -1.0421 C   0  0  0  0  0  0  0  0  0  0  0  0
    1.8352    0.9749   -0.8610 C   0  0  0  0  0  0  0  0  0  0  0  0
    1.9530    0.1157    0.2344 C   0  0  0  0  0  0  0  0  0  0  0  0
    3.0954   -0.6689    0.4904 N   0  0  0  0  0  0  0  0  0  0  0  0
    4.1245   -0.9535   -0.3799 C   0  0  0  0  0  0  0  0  0  0  0  0
    4.1107   -0.7038   -1.5824 O   0  0  0  0  0  0  0  0  0  0  0  0
    5.2079   -1.6047    0.2216 N   0  0  0  0  0  0  0  0  0  0  0  0
    6.2796   -2.0338   -0.6620 C   0  0  0  0  0  0  0  0  0  0  0  0
    5.5967   -1.3951    1.6106 C   0  0  0  0  0  0  0  0  0  0  0  0
    0.9045    0.0486    1.1618 C   0  0  0  0  0  0  0  0  0  0  0  0
   -0.2551    0.8084    0.9826 C   0  0  0  0  0  0  0  0  0  0  0  0
   -3.0112    0.6340   -0.9128 C   0  0  0  0  0  0  0  0  0  0  0  0
   -4.2976    0.0915   -0.8176 C   0  0  0  0  0  0  0  0  0  0  0  0
   -7.9987   -1.0739   -0.3198 H   0  0  0  0  0  0  0  0  0  0  0  0
   -6.8507   -0.8085   -1.6375 H   0  0  0  0  0  0  0  0  0  0  0  0
   -6.3628   -1.7238   -0.1576 H   0  0  0  0  0  0  0  0  0  0  0  0
   -5.7485    2.4938    1.0971 H   0  0  0  0  0  0  0  0  0  0  0  0
   -3.4723    3.4592    0.9251 H   0  0  0  0  0  0  0  0  0  0  0  0
    0.5981    2.4051   -1.8958 H   0  0  0  0  0  0  0  0  0  0  0  0
    2.6361    1.0811   -1.5869 H   0  0  0  0  0  0  0  0  0  0  0  0
    3.0439   -1.2786    1.2909 H   0  0  0  0  0  0  0  0  0  0  0  0
    5.8828   -2.3652   -1.6264 H   0  0  0  0  0  0  0  0  0  0  0  0
    6.8183   -2.8673   -0.2019 H   0  0  0  0  0  0  0  0  0  0  0  0
    6.9626   -1.1948   -0.8259 H   0  0  0  0  0  0  0  0  0  0  0  0
    6.0183   -2.3246    2.0042 H   0  0  0  0  0  0  0  0  0  0  0  0
    4.7674   -1.0868    2.2485 H   0  0  0  0  0  0  0  0  0  0  0  0
    6.3566   -0.6077    1.6414 H   0  0  0  0  0  0  0  0  0  0  0  0
    0.9741   -0.5933    2.0357 H   0  0  0  0  0  0  0  0  0  0  0  0
   -1.0537    0.7531    1.7170 H   0  0  0  0  0  0  0  0  0  0  0  0
   -2.2555    0.1177   -1.4990 H   0  0  0  0  0  0  0  0  0  0  0  0
   -4.4932   -0.8448   -1.3290 H   0  0  0  0  0  0  0  0  0  0  0  0
  1  2  1  0
  2  3  1  0
  3  4  2  0
  4  5  1  0
  5  6  2  0
  6  7  1  0
  7  8  1  0
  8  9  2  0
  9 10  1  0
 10 11  2  0
 11 12  1  0
 12 13  1  0
 13 14  2  0
 13 15  1  0
 15 16  1  0
 15 17  1  0
 11 18  1  0
 18 19  2  0
  6 20  1  0
 20 21  2  0
 19  8  1  0
 21  3  1  0
  1 22  1  0
  1 23  1  0
  1 24  1  0
  4 25  1  0
  5 26  1  0
  9 27  1  0
 10 28  1  0
 12 29  1  0
 16 30  1  0
 16 31  1  0
 16 32  1  0
 17 33  1  0
 17 34  1  0
 17 35  1  0
 18 36  1  0
 19 37  1  0
 20 38  1  0
 21 39  1  0
M  END
>  <Energy>  (1) 
-17.009500868229487

>  <Real charge>  (1) 
0

>  <Mult>  (1) 
1

$$$$
mol_697 348
     RDKit          3D

 39 40  0  0  0  0  0  0  0  0999 V2000
    6.5242   -0.1944   -2.2357 C   0  0  0  0  0  0  0  0  0  0  0  0
    6.1504   -1.3515   -1.4986 O   0  0  0  0  0  0  0  0  0  0  0  0
    5.0507   -1.2419   -0.6927 C   0  0  0  0  0  0  0  0  0  0  0  0
    4.2842   -0.0907   -0.5017 C   0  0  0  0  0  0  0  0  0  0  0  0
    3.1783   -0.1162    0.3555 C   0  0  0  0  0  0  0  0  0  0  0  0
    2.8280   -1.2990    1.0102 C   0  0  0  0  0  0  0  0  0  0  0  0
    1.7745   -1.3823    1.8913 O   0  0  0  0  0  0  0  0  0  0  0  0
    0.5784   -0.8220    1.5067 C   0  0  0  0  0  0  0  0  0  0  0  0
    0.0056   -1.0430    0.2540 C   0  0  0  0  0  0  0  0  0  0  0  0
   -1.2311   -0.4688   -0.0602 C   0  0  0  0  0  0  0  0  0  0  0  0
   -1.9060    0.3182    0.8763 C   0  0  0  0  0  0  0  0  0  0  0  0
   -3.1610    0.9124    0.6354 N   0  0  0  0  0  0  0  0  0  0  0  0
   -3.7867    1.0765   -0.5807 C   0  0  0  0  0  0  0  0  0  0  0  0
   -3.2551    0.8830   -1.6709 O   0  0  0  0  0  0  0  0  0  0  0  0
   -5.1064    1.5324   -0.4789 N   0  0  0  0  0  0  0  0  0  0  0  0
   -5.9807    1.2078    0.6411 C   0  0  0  0  0  0  0  0  0  0  0  0
   -5.7876    1.8329   -1.7276 C   0  0  0  0  0  0  0  0  0  0  0  0
   -1.3382    0.5032    2.1437 C   0  0  0  0  0  0  0  0  0  0  0  0
   -0.1021   -0.0676    2.4595 C   0  0  0  0  0  0  0  0  0  0  0  0
    3.6033   -2.4438    0.8420 C   0  0  0  0  0  0  0  0  0  0  0  0
    4.7066   -2.4144   -0.0133 C   0  0  0  0  0  0  0  0  0  0  0  0
    6.8073    0.6248   -1.5666 H   0  0  0  0  0  0  0  0  0  0  0  0
    5.7278    0.1118   -2.9221 H   0  0  0  0  0  0  0  0  0  0  0  0
    7.4016   -0.4505   -2.8374 H   0  0  0  0  0  0  0  0  0  0  0  0
    4.5204    0.8441   -0.9986 H   0  0  0  0  0  0  0  0  0  0  0  0
    2.6005    0.7915    0.5075 H   0  0  0  0  0  0  0  0  0  0  0  0
    0.5054   -1.6644   -0.4841 H   0  0  0  0  0  0  0  0  0  0  0  0
   -1.6509   -0.6658   -1.0424 H   0  0  0  0  0  0  0  0  0  0  0  0
   -3.5277    1.4894    1.3754 H   0  0  0  0  0  0  0  0  0  0  0  0
   -5.4389    1.0025    1.5653 H   0  0  0  0  0  0  0  0  0  0  0  0
   -6.6639    2.0450    0.8111 H   0  0  0  0  0  0  0  0  0  0  0  0
   -6.5563    0.3135    0.3819 H   0  0  0  0  0  0  0  0  0  0  0  0
   -6.2095    0.9085   -2.1337 H   0  0  0  0  0  0  0  0  0  0  0  0
   -6.5871    2.5557   -1.5408 H   0  0  0  0  0  0  0  0  0  0  0  0
   -5.0948    2.2607   -2.4584 H   0  0  0  0  0  0  0  0  0  0  0  0
   -1.8468    1.0929    2.9014 H   0  0  0  0  0  0  0  0  0  0  0  0
    0.3304    0.0798    3.4452 H   0  0  0  0  0  0  0  0  0  0  0  0
    3.3483   -3.3587    1.3689 H   0  0  0  0  0  0  0  0  0  0  0  0
    5.3050   -3.3116   -0.1507 H   0  0  0  0  0  0  0  0  0  0  0  0
  1  2  1  0
  2  3  1  0
  3  4  2  0
  4  5  1  0
  5  6  2  0
  6  7  1  0
  7  8  1  0
  8  9  2  0
  9 10  1  0
 10 11  2  0
 11 12  1  0
 12 13  1  0
 13 14  2  0
 13 15  1  0
 15 16  1  0
 15 17  1  0
 11 18  1  0
 18 19  2  0
  6 20  1  0
 20 21  2  0
 19  8  1  0
 21  3  1  0
  1 22  1  0
  1 23  1  0
  1 24  1  0
  4 25  1  0
  5 26  1  0
  9 27  1  0
 10 28  1  0
 12 29  1  0
 16 30  1  0
 16 31  1  0
 16 32  1  0
 17 33  1  0
 17 34  1  0
 17 35  1  0
 18 36  1  0
 19 37  1  0
 20 38  1  0
 21 39  1  0
M  END
>  <Energy>  (2) 
-16.95601840612556

>  <Real charge>  (2) 
0

>  <Mult>  (2) 
1

$$$$
mol_697 410
     RDKit          3D

 39 40  0  0  0  0  0  0  0  0999 V2000
    7.4912   -0.1150   -0.7086 C   0  0  0  0  0  0  0  0  0  0  0  0
    6.3452    0.7206   -0.8098 O   0  0  0  0  0  0  0  0  0  0  0  0
    5.2447    0.3513   -0.0865 C   0  0  0  0  0  0  0  0  0  0  0  0
    5.1392   -0.7763    0.7299 C   0  0  0  0  0  0  0  0  0  0  0  0
    3.9482   -1.0368    1.4160 C   0  0  0  0  0  0  0  0  0  0  0  0
    2.8567   -0.1804    1.2759 C   0  0  0  0  0  0  0  0  0  0  0  0
    1.7294   -0.4816    2.0054 O   0  0  0  0  0  0  0  0  0  0  0  0
    0.5170   -0.3817    1.3634 C   0  0  0  0  0  0  0  0  0  0  0  0
    0.2727   -0.9657    0.1204 C   0  0  0  0  0  0  0  0  0  0  0  0
   -0.9942   -0.8563   -0.4604 C   0  0  0  0  0  0  0  0  0  0  0  0
   -2.0255   -0.1725    0.1975 C   0  0  0  0  0  0  0  0  0  0  0  0
   -3.2786   -0.1170   -0.4452 N   0  0  0  0  0  0  0  0  0  0  0  0
   -4.3508    0.6832   -0.1175 C   0  0  0  0  0  0  0  0  0  0  0  0
   -4.3123    1.6051    0.6931 O   0  0  0  0  0  0  0  0  0  0  0  0
   -5.5181    0.3810   -0.8287 N   0  0  0  0  0  0  0  0  0  0  0  0
   -6.6552    1.2613   -0.6156 C   0  0  0  0  0  0  0  0  0  0  0  0
   -5.8511   -0.9610   -1.2895 C   0  0  0  0  0  0  0  0  0  0  0  0
   -1.7773    0.3781    1.4572 C   0  0  0  0  0  0  0  0  0  0  0  0
   -0.5107    0.2701    2.0408 C   0  0  0  0  0  0  0  0  0  0  0  0
    2.9625    0.9608    0.4809 C   0  0  0  0  0  0  0  0  0  0  0  0
    4.1528    1.2169   -0.2034 C   0  0  0  0  0  0  0  0  0  0  0  0
    7.2806   -1.1211   -1.0859 H   0  0  0  0  0  0  0  0  0  0  0  0
    7.8665   -0.1480    0.3196 H   0  0  0  0  0  0  0  0  0  0  0  0
    8.2768    0.3177   -1.3356 H   0  0  0  0  0  0  0  0  0  0  0  0
    5.9630   -1.4701    0.8584 H   0  0  0  0  0  0  0  0  0  0  0  0
    3.8714   -1.9107    2.0572 H   0  0  0  0  0  0  0  0  0  0  0  0
    1.0569   -1.5091   -0.3989 H   0  0  0  0  0  0  0  0  0  0  0  0
   -1.1606   -1.3137   -1.4319 H   0  0  0  0  0  0  0  0  0  0  0  0
   -3.3188   -0.5117   -1.3713 H   0  0  0  0  0  0  0  0  0  0  0  0
   -7.1978    0.9315    0.2755 H   0  0  0  0  0  0  0  0  0  0  0  0
   -7.3141    1.2215   -1.4879 H   0  0  0  0  0  0  0  0  0  0  0  0
   -6.3283    2.2957   -0.4726 H   0  0  0  0  0  0  0  0  0  0  0  0
   -6.4819   -1.4391   -0.5332 H   0  0  0  0  0  0  0  0  0  0  0  0
   -4.9760   -1.5933   -1.4450 H   0  0  0  0  0  0  0  0  0  0  0  0
   -6.4039   -0.8848   -2.2303 H   0  0  0  0  0  0  0  0  0  0  0  0
   -2.5554    0.8902    2.0157 H   0  0  0  0  0  0  0  0  0  0  0  0
   -0.3306    0.7003    3.0223 H   0  0  0  0  0  0  0  0  0  0  0  0
    2.1334    1.6572    0.3925 H   0  0  0  0  0  0  0  0  0  0  0  0
    4.2331    2.1035   -0.8279 H   0  0  0  0  0  0  0  0  0  0  0  0
  1  2  1  0
  2  3  1  0
  3  4  2  0
  4  5  1  0
  5  6  2  0
  6  7  1  0
  7  8  1  0
  8  9  2  0
  9 10  1  0
 10 11  2  0
 11 12  1  0
 12 13  1  0
 13 14  2  0
 13 15  1  0
 15 16  1  0
 15 17  1  0
 11 18  1  0
 18 19  2  0
  6 20  1  0
 20 21  2  0
 19  8  1  0
 21  3  1  0
  1 22  1  0
  1 23  1  0
  1 24  1  0
  4 25  1  0
  5 26  1  0
  9 27  1  0
 10 28  1  0
 12 29  1  0
 16 30  1  0
 16 31  1  0
 16 32  1  0
 17 33  1  0
 17 34  1  0
 17 35  1  0
 18 36  1  0
 19 37  1  0
 20 38  1  0
 21 39  1  0
M  END
>  <Energy>  (3) 
-16.912026595941484

>  <Real charge>  (3) 
0

>  <Mult>  (3) 
1

$$$$
mol_697 107
     RDKit          3D

 39 40  0  0  0  0  0  0  0  0999 V2000
    7.3516   -1.0856    0.9059 C   0  0  0  0  0  0  0  0  0  0  0  0
    6.1081   -1.7426    0.6964 O   0  0  0  0  0  0  0  0  0  0  0  0
    5.1145   -1.0119    0.1052 C   0  0  0  0  0  0  0  0  0  0  0  0
    5.2051    0.3217   -0.2982 C   0  0  0  0  0  0  0  0  0  0  0  0
    4.1061    0.9510   -0.8923 C   0  0  0  0  0  0  0  0  0  0  0  0
    2.9113    0.2545   -1.0700 C   0  0  0  0  0  0  0  0  0  0  0  0
    1.8824    0.9251   -1.6901 O   0  0  0  0  0  0  0  0  0  0  0  0
    0.6291    0.8122   -1.1341 C   0  0  0  0  0  0  0  0  0  0  0  0
   -0.4330    0.5774   -2.0041 C   0  0  0  0  0  0  0  0  0  0  0  0
   -1.7382    0.4839   -1.5094 C   0  0  0  0  0  0  0  0  0  0  0  0
   -1.9915    0.6480   -0.1455 C   0  0  0  0  0  0  0  0  0  0  0  0
   -3.2749    0.5488    0.4286 N   0  0  0  0  0  0  0  0  0  0  0  0
   -4.4868    0.5431   -0.2260 C   0  0  0  0  0  0  0  0  0  0  0  0
   -4.6387    0.7982   -1.4177 O   0  0  0  0  0  0  0  0  0  0  0  0
   -5.5749    0.2503    0.6047 N   0  0  0  0  0  0  0  0  0  0  0  0
   -5.4842   -0.6235    1.7676 C   0  0  0  0  0  0  0  0  0  0  0  0
   -6.8953    0.3445    0.0038 C   0  0  0  0  0  0  0  0  0  0  0  0
   -0.9176    0.8972    0.7198 C   0  0  0  0  0  0  0  0  0  0  0  0
    0.3878    0.9909    0.2281 C   0  0  0  0  0  0  0  0  0  0  0  0
    2.8207   -1.0849   -0.6914 C   0  0  0  0  0  0  0  0  0  0  0  0
    3.9197   -1.7095   -0.0977 C   0  0  0  0  0  0  0  0  0  0  0  0
    7.7996   -0.7757   -0.0440 H   0  0  0  0  0  0  0  0  0  0  0  0
    7.2390   -0.2355    1.5868 H   0  0  0  0  0  0  0  0  0  0  0  0
    8.0325   -1.8011    1.3770 H   0  0  0  0  0  0  0  0  0  0  0  0
    6.1142    0.8991   -0.1698 H   0  0  0  0  0  0  0  0  0  0  0  0
    4.1815    1.9866   -1.2130 H   0  0  0  0  0  0  0  0  0  0  0  0
   -0.2504    0.4591   -3.0687 H   0  0  0  0  0  0  0  0  0  0  0  0
   -2.5380    0.2782   -2.2147 H   0  0  0  0  0  0  0  0  0  0  0  0
   -3.3336    0.7395    1.4161 H   0  0  0  0  0  0  0  0  0  0  0  0
   -4.4815   -0.6719    2.1942 H   0  0  0  0  0  0  0  0  0  0  0  0
   -5.7689   -1.6355    1.4620 H   0  0  0  0  0  0  0  0  0  0  0  0
   -6.1778   -0.2654    2.5338 H   0  0  0  0  0  0  0  0  0  0  0  0
   -7.1225   -0.5976   -0.5042 H   0  0  0  0  0  0  0  0  0  0  0  0
   -6.9377    1.1616   -0.7226 H   0  0  0  0  0  0  0  0  0  0  0  0
   -7.6374    0.5339    0.7850 H   0  0  0  0  0  0  0  0  0  0  0  0
   -1.0809    1.0309    1.7857 H   0  0  0  0  0  0  0  0  0  0  0  0
    1.2045    1.2070    0.9111 H   0  0  0  0  0  0  0  0  0  0  0  0
    1.9085   -1.6501   -0.8591 H   0  0  0  0  0  0  0  0  0  0  0  0
    3.8476   -2.7519    0.2030 H   0  0  0  0  0  0  0  0  0  0  0  0
  1  2  1  0
  2  3  1  0
  3  4  2  0
  4  5  1  0
  5  6  2  0
  6  7  1  0
  7  8  1  0
  8  9  2  0
  9 10  1  0
 10 11  2  0
 11 12  1  0
 12 13  1  0
 13 14  2  0
 13 15  1  0
 15 16  1  0
 15 17  1  0
 11 18  1  0
 18 19  2  0
  6 20  1  0
 20 21  2  0
 19  8  1  0
 21  3  1  0
  1 22  1  0
  1 23  1  0
  1 24  1  0
  4 25  1  0
  5 26  1  0
  9 27  1  0
 10 28  1  0
 12 29  1  0
 16 30  1  0
 16 31  1  0
 16 32  1  0
 17 33  1  0
 17 34  1  0
 17 35  1  0
 18 36  1  0
 19 37  1  0
 20 38  1  0
 21 39  1  0
M  END
>  <Energy>  (4) 
-16.84322249124683

>  <Real charge>  (4) 
0

>  <Mult>  (4) 
1

$$$$
mol_697 441
     RDKit          3D

 39 40  0  0  0  0  0  0  0  0999 V2000
    7.1884    1.3274   -1.1321 C   0  0  0  0  0  0  0  0  0  0  0  0
    6.1912    1.3092   -0.1187 O   0  0  0  0  0  0  0  0  0  0  0  0
    5.1389    0.4550   -0.3019 C   0  0  0  0  0  0  0  0  0  0  0  0
    4.1763    0.4897    0.7118 C   0  0  0  0  0  0  0  0  0  0  0  0
    3.0479   -0.3314    0.6531 C   0  0  0  0  0  0  0  0  0  0  0  0
    2.8717   -1.1837   -0.4369 C   0  0  0  0  0  0  0  0  0  0  0  0
    1.8067   -2.0479   -0.5474 O   0  0  0  0  0  0  0  0  0  0  0  0
    0.5529   -1.5486   -0.2816 C   0  0  0  0  0  0  0  0  0  0  0  0
    0.0829   -0.3526   -0.8244 C   0  0  0  0  0  0  0  0  0  0  0  0
   -1.2180    0.0793   -0.5431 C   0  0  0  0  0  0  0  0  0  0  0  0
   -2.0579   -0.6837    0.2719 C   0  0  0  0  0  0  0  0  0  0  0  0
   -3.3837   -0.3206    0.5833 N   0  0  0  0  0  0  0  0  0  0  0  0
   -3.9784    0.9083    0.4006 C   0  0  0  0  0  0  0  0  0  0  0  0
   -3.3796    1.9349    0.0909 O   0  0  0  0  0  0  0  0  0  0  0  0
   -5.3579    0.9080    0.6386 N   0  0  0  0  0  0  0  0  0  0  0  0
   -6.2127   -0.2473    0.3958 C   0  0  0  0  0  0  0  0  0  0  0  0
   -6.0281    2.1966    0.5768 C   0  0  0  0  0  0  0  0  0  0  0  0
   -1.5865   -1.9000    0.7834 C   0  0  0  0  0  0  0  0  0  0  0  0
   -0.2874   -2.3334    0.5047 C   0  0  0  0  0  0  0  0  0  0  0  0
    3.8381   -1.2409   -1.4406 C   0  0  0  0  0  0  0  0  0  0  0  0
    4.9674   -0.4175   -1.3781 C   0  0  0  0  0  0  0  0  0  0  0  0
    7.6853    0.3550   -1.2138 H   0  0  0  0  0  0  0  0  0  0  0  0
    6.7688    1.6399   -2.0941 H   0  0  0  0  0  0  0  0  0  0  0  0
    7.9445    2.0641   -0.8438 H   0  0  0  0  0  0  0  0  0  0  0  0
    4.3092    1.1602    1.5574 H   0  0  0  0  0  0  0  0  0  0  0  0
    2.3212   -0.2997    1.4596 H   0  0  0  0  0  0  0  0  0  0  0  0
    0.7139    0.2499   -1.4720 H   0  0  0  0  0  0  0  0  0  0  0  0
   -1.5530    1.0125   -0.9865 H   0  0  0  0  0  0  0  0  0  0  0  0
   -3.8726   -0.9317    1.2178 H   0  0  0  0  0  0  0  0  0  0  0  0
   -7.0227   -0.2486    1.1309 H   0  0  0  0  0  0  0  0  0  0  0  0
   -6.6336   -0.1599   -0.6109 H   0  0  0  0  0  0  0  0  0  0  0  0
   -5.6807   -1.1977    0.4558 H   0  0  0  0  0  0  0  0  0  0  0  0
   -6.2790    2.4170   -0.4653 H   0  0  0  0  0  0  0  0  0  0  0  0
   -6.9405    2.1610    1.1792 H   0  0  0  0  0  0  0  0  0  0  0  0
   -5.3847    2.9917    0.9653 H   0  0  0  0  0  0  0  0  0  0  0  0
   -2.2207   -2.5262    1.4049 H   0  0  0  0  0  0  0  0  0  0  0  0
    0.0693   -3.2787    0.9040 H   0  0  0  0  0  0  0  0  0  0  0  0
    3.7107   -1.9239   -2.2762 H   0  0  0  0  0  0  0  0  0  0  0  0
    5.6923   -0.4856   -2.1819 H   0  0  0  0  0  0  0  0  0  0  0  0
  1  2  1  0
  2  3  1  0
  3  4  2  0
  4  5  1  0
  5  6  2  0
  6  7  1  0
  7  8  1  0
  8  9  2  0
  9 10  1  0
 10 11  2  0
 11 12  1  0
 12 13  1  0
 13 14  2  0
 13 15  1  0
 15 16  1  0
 15 17  1  0
 11 18  1  0
 18 19  2  0
  6 20  1  0
 20 21  2  0
 19  8  1  0
 21  3  1  0
  1 22  1  0
  1 23  1  0
  1 24  1  0
  4 25  1  0
  5 26  1  0
  9 27  1  0
 10 28  1  0
 12 29  1  0
 16 30  1  0
 16 31  1  0
 16 32  1  0
 17 33  1  0
 17 34  1  0
 17 35  1  0
 18 36  1  0
 19 37  1  0
 20 38  1  0
 21 39  1  0
M  END
>  <Energy>  (5) 
-16.824723853083384

>  <Real charge>  (5) 
0

>  <Mult>  (5) 
1

$$$$
mol_697 409
     RDKit          3D

 39 40  0  0  0  0  0  0  0  0999 V2000
    6.4978   -1.7332   -1.7032 C   0  0  0  0  0  0  0  0  0  0  0  0
    6.2483   -1.8768   -0.3107 O   0  0  0  0  0  0  0  0  0  0  0  0
    5.1546   -1.2273    0.1918 C   0  0  0  0  0  0  0  0  0  0  0  0
    4.2542   -0.4492   -0.5387 C   0  0  0  0  0  0  0  0  0  0  0  0
    3.1713    0.1617    0.1031 C   0  0  0  0  0  0  0  0  0  0  0  0
    2.9800   -0.0183    1.4746 C   0  0  0  0  0  0  0  0  0  0  0  0
    1.9546    0.5848    2.1656 O   0  0  0  0  0  0  0  0  0  0  0  0
    0.6886    0.4659    1.6403 C   0  0  0  0  0  0  0  0  0  0  0  0
    0.1543   -0.7552    1.2292 C   0  0  0  0  0  0  0  0  0  0  0  0
   -1.1536   -0.8101    0.7383 C   0  0  0  0  0  0  0  0  0  0  0  0
   -1.9427    0.3464    0.6743 C   0  0  0  0  0  0  0  0  0  0  0  0
   -3.2445    0.2124    0.1506 N   0  0  0  0  0  0  0  0  0  0  0  0
   -4.2658    1.1354    0.1983 C   0  0  0  0  0  0  0  0  0  0  0  0
   -4.2439    2.1688    0.8616 O   0  0  0  0  0  0  0  0  0  0  0  0
   -5.3845    0.7785   -0.5636 N   0  0  0  0  0  0  0  0  0  0  0  0
   -6.5462    1.6464   -0.4607 C   0  0  0  0  0  0  0  0  0  0  0  0
   -5.3066   -0.0107   -1.7863 C   0  0  0  0  0  0  0  0  0  0  0  0
   -1.3997    1.5609    1.1003 C   0  0  0  0  0  0  0  0  0  0  0  0
   -0.0919    1.6185    1.5934 C   0  0  0  0  0  0  0  0  0  0  0  0
    3.8876   -0.7736    2.2129 C   0  0  0  0  0  0  0  0  0  0  0  0
    4.9662   -1.3825    1.5687 C   0  0  0  0  0  0  0  0  0  0  0  0
    5.6763   -2.1486   -2.2962 H   0  0  0  0  0  0  0  0  0  0  0  0
    7.4011   -2.3029   -1.9415 H   0  0  0  0  0  0  0  0  0  0  0  0
    6.6855   -0.6866   -1.9650 H   0  0  0  0  0  0  0  0  0  0  0  0
    4.3676   -0.2914   -1.6058 H   0  0  0  0  0  0  0  0  0  0  0  0
    2.4878    0.7807   -0.4718 H   0  0  0  0  0  0  0  0  0  0  0  0
    0.7428   -1.6661    1.2930 H   0  0  0  0  0  0  0  0  0  0  0  0
   -1.5466   -1.7708    0.4169 H   0  0  0  0  0  0  0  0  0  0  0  0
   -3.5386   -0.7262   -0.0675 H   0  0  0  0  0  0  0  0  0  0  0  0
   -6.4312    2.4783   -1.1621 H   0  0  0  0  0  0  0  0  0  0  0  0
   -6.6491    2.0453    0.5529 H   0  0  0  0  0  0  0  0  0  0  0  0
   -7.4478    1.0769   -0.7043 H   0  0  0  0  0  0  0  0  0  0  0  0
   -6.1963   -0.6434   -1.8554 H   0  0  0  0  0  0  0  0  0  0  0  0
   -5.2801    0.6754   -2.6390 H   0  0  0  0  0  0  0  0  0  0  0  0
   -4.4188   -0.6423   -1.8372 H   0  0  0  0  0  0  0  0  0  0  0  0
   -1.9707    2.4838    1.0593 H   0  0  0  0  0  0  0  0  0  0  0  0
    0.3147    2.5670    1.9338 H   0  0  0  0  0  0  0  0  0  0  0  0
    3.7554   -0.8928    3.2844 H   0  0  0  0  0  0  0  0  0  0  0  0
    5.6697   -1.9790    2.1445 H   0  0  0  0  0  0  0  0  0  0  0  0
  1  2  1  0
  2  3  1  0
  3  4  2  0
  4  5  1  0
  5  6  2  0
  6  7  1  0
  7  8  1  0
  8  9  2  0
  9 10  1  0
 10 11  2  0
 11 12  1  0
 12 13  1  0
 13 14  2  0
 13 15  1  0
 15 16  1  0
 15 17  1  0
 11 18  1  0
 18 19  2  0
  6 20  1  0
 20 21  2  0
 19  8  1  0
 21  3  1  0
  1 22  1  0
  1 23  1  0
  1 24  1  0
  4 25  1  0
  5 26  1  0
  9 27  1  0
 10 28  1  0
 12 29  1  0
 16 30  1  0
 16 31  1  0
 16 32  1  0
 17 33  1  0
 17 34  1  0
 17 35  1  0
 18 36  1  0
 19 37  1  0
 20 38  1  0
 21 39  1  0
M  END
>  <Energy>  (6) 
-16.82320278515261

>  <Real charge>  (6) 
0

>  <Mult>  (6) 
1

$$$$
mol_697 129
     RDKit          3D

 39 40  0  0  0  0  0  0  0  0999 V2000
   -7.2459    0.7567   -0.7859 C   0  0  0  0  0  0  0  0  0  0  0  0
   -6.1160    0.0918   -1.3365 O   0  0  0  0  0  0  0  0  0  0  0  0
   -5.0857   -0.1874   -0.4814 C   0  0  0  0  0  0  0  0  0  0  0  0
   -3.9921   -0.8253   -1.0750 C   0  0  0  0  0  0  0  0  0  0  0  0
   -2.8695   -1.1689   -0.3185 C   0  0  0  0  0  0  0  0  0  0  0  0
   -2.8334   -0.8579    1.0406 C   0  0  0  0  0  0  0  0  0  0  0  0
   -1.7783   -1.1985    1.8552 O   0  0  0  0  0  0  0  0  0  0  0  0
   -0.5116   -0.8977    1.4105 C   0  0  0  0  0  0  0  0  0  0  0  0
   -0.1678    0.3470    0.8826 C   0  0  0  0  0  0  0  0  0  0  0  0
    1.1499    0.5979    0.4840 C   0  0  0  0  0  0  0  0  0  0  0  0
    2.1345   -0.3821    0.6318 C   0  0  0  0  0  0  0  0  0  0  0  0
    3.4761   -0.2078    0.2366 N   0  0  0  0  0  0  0  0  0  0  0  0
    4.1046    0.9725   -0.0940 C   0  0  0  0  0  0  0  0  0  0  0  0
    3.6251    2.0906    0.0740 O   0  0  0  0  0  0  0  0  0  0  0  0
    5.3903    0.7984   -0.6200 N   0  0  0  0  0  0  0  0  0  0  0  0
    6.1549    2.0071   -0.8805 C   0  0  0  0  0  0  0  0  0  0  0  0
    5.7850   -0.3654   -1.4035 C   0  0  0  0  0  0  0  0  0  0  0  0
    1.7802   -1.6243    1.1749 C   0  0  0  0  0  0  0  0  0  0  0  0
    0.4647   -1.8777    1.5734 C   0  0  0  0  0  0  0  0  0  0  0  0
   -3.9289   -0.2430    1.6455 C   0  0  0  0  0  0  0  0  0  0  0  0
   -5.0517    0.0995    0.8845 C   0  0  0  0  0  0  0  0  0  0  0  0
   -7.9668    0.9154   -1.5938 H   0  0  0  0  0  0  0  0  0  0  0  0
   -7.7323    0.1412   -0.0220 H   0  0  0  0  0  0  0  0  0  0  0  0
   -6.9711    1.7390   -0.3874 H   0  0  0  0  0  0  0  0  0  0  0  0
   -4.0174   -1.0605   -2.1363 H   0  0  0  0  0  0  0  0  0  0  0  0
   -2.0375   -1.6787   -0.7953 H   0  0  0  0  0  0  0  0  0  0  0  0
   -0.9117    1.1321    0.7789 H   0  0  0  0  0  0  0  0  0  0  0  0
    1.3774    1.5711    0.0590 H   0  0  0  0  0  0  0  0  0  0  0  0
    4.1010   -0.9705    0.4435 H   0  0  0  0  0  0  0  0  0  0  0  0
    5.9485    2.7714   -0.1253 H   0  0  0  0  0  0  0  0  0  0  0  0
    7.2233    1.7734   -0.8569 H   0  0  0  0  0  0  0  0  0  0  0  0
    5.8809    2.3953   -1.8662 H   0  0  0  0  0  0  0  0  0  0  0  0
    5.1950   -1.2555   -1.1813 H   0  0  0  0  0  0  0  0  0  0  0  0
    6.8393   -0.5821   -1.2083 H   0  0  0  0  0  0  0  0  0  0  0  0
    5.6513   -0.1291   -2.4640 H   0  0  0  0  0  0  0  0  0  0  0  0
    2.5215   -2.4082    1.3027 H   0  0  0  0  0  0  0  0  0  0  0  0
    0.2018   -2.8393    2.0053 H   0  0  0  0  0  0  0  0  0  0  0  0
   -3.9074   -0.0244    2.7098 H   0  0  0  0  0  0  0  0  0  0  0  0
   -5.8802    0.5841    1.3894 H   0  0  0  0  0  0  0  0  0  0  0  0
  1  2  1  0
  2  3  1  0
  3  4  2  0
  4  5  1  0
  5  6  2  0
  6  7  1  0
  7  8  1  0
  8  9  2  0
  9 10  1  0
 10 11  2  0
 11 12  1  0
 12 13  1  0
 13 14  2  0
 13 15  1  0
 15 16  1  0
 15 17  1  0
 11 18  1  0
 18 19  2  0
  6 20  1  0
 20 21  2  0
 19  8  1  0
 21  3  1  0
  1 22  1  0
  1 23  1  0
  1 24  1  0
  4 25  1  0
  5 26  1  0
  9 27  1  0
 10 28  1  0
 12 29  1  0
 16 30  1  0
 16 31  1  0
 16 32  1  0
 17 33  1  0
 17 34  1  0
 17 35  1  0
 18 36  1  0
 19 37  1  0
 20 38  1  0
 21 39  1  0
M  END
>  <Energy>  (7) 
-16.785042480121177

>  <Real charge>  (7) 
0

>  <Mult>  (7) 
1

$$$$
mol_697 227
     RDKit          3D

 39 40  0  0  0  0  0  0  0  0999 V2000
   -6.4657    0.4924    2.1785 C   0  0  0  0  0  0  0  0  0  0  0  0
   -6.2854   -0.5388    1.2163 O   0  0  0  0  0  0  0  0  0  0  0  0
   -5.1689   -0.4624    0.4300 C   0  0  0  0  0  0  0  0  0  0  0  0
   -5.0259   -1.5117   -0.4829 C   0  0  0  0  0  0  0  0  0  0  0  0
   -3.9301   -1.5594   -1.3468 C   0  0  0  0  0  0  0  0  0  0  0  0
   -2.9613   -0.5607   -1.2892 C   0  0  0  0  0  0  0  0  0  0  0  0
   -1.9228   -0.6420   -2.1878 O   0  0  0  0  0  0  0  0  0  0  0  0
   -0.6505   -0.4338   -1.7074 C   0  0  0  0  0  0  0  0  0  0  0  0
   -0.1698   -1.0336   -0.5433 C   0  0  0  0  0  0  0  0  0  0  0  0
    1.1481   -0.8056   -0.1315 C   0  0  0  0  0  0  0  0  0  0  0  0
    1.9991    0.0009   -0.8910 C   0  0  0  0  0  0  0  0  0  0  0  0
    3.3311    0.2892   -0.5313 N   0  0  0  0  0  0  0  0  0  0  0  0
    4.0933   -0.3363    0.4305 C   0  0  0  0  0  0  0  0  0  0  0  0
    3.7725   -1.3674    1.0155 O   0  0  0  0  0  0  0  0  0  0  0  0
    5.3199    0.2923    0.6748 N   0  0  0  0  0  0  0  0  0  0  0  0
    6.2267   -0.3828    1.5888 C   0  0  0  0  0  0  0  0  0  0  0  0
    5.5275    1.7289    0.5441 C   0  0  0  0  0  0  0  0  0  0  0  0
    1.5095    0.5870   -2.0659 C   0  0  0  0  0  0  0  0  0  0  0  0
    0.1932    0.3621   -2.4787 C   0  0  0  0  0  0  0  0  0  0  0  0
   -3.1071    0.5045   -0.3981 C   0  0  0  0  0  0  0  0  0  0  0  0
   -4.2066    0.5487    0.4665 C   0  0  0  0  0  0  0  0  0  0  0  0
   -5.6425    0.5080    2.9004 H   0  0  0  0  0  0  0  0  0  0  0  0
   -6.5863    1.4670    1.6940 H   0  0  0  0  0  0  0  0  0  0  0  0
   -7.3869    0.2786    2.7290 H   0  0  0  0  0  0  0  0  0  0  0  0
   -5.7766   -2.2972   -0.5223 H   0  0  0  0  0  0  0  0  0  0  0  0
   -3.8318   -2.3761   -2.0561 H   0  0  0  0  0  0  0  0  0  0  0  0
   -0.8058   -1.6844    0.0508 H   0  0  0  0  0  0  0  0  0  0  0  0
    1.4821   -1.2737    0.7899 H   0  0  0  0  0  0  0  0  0  0  0  0
    3.8587    0.8369   -1.1921 H   0  0  0  0  0  0  0  0  0  0  0  0
    5.9679   -0.1056    2.6152 H   0  0  0  0  0  0  0  0  0  0  0  0
    7.2549   -0.0800    1.3702 H   0  0  0  0  0  0  0  0  0  0  0  0
    6.1532   -1.4693    1.4827 H   0  0  0  0  0  0  0  0  0  0  0  0
    5.3990    2.1875    1.5298 H   0  0  0  0  0  0  0  0  0  0  0  0
    6.5466    1.9076    0.1891 H   0  0  0  0  0  0  0  0  0  0  0  0
    4.8258    2.2062   -0.1412 H   0  0  0  0  0  0  0  0  0  0  0  0
    2.1451    1.2192   -2.6798 H   0  0  0  0  0  0  0  0  0  0  0  0
   -0.1738    0.8103   -3.3978 H   0  0  0  0  0  0  0  0  0  0  0  0
   -2.3740    1.3059   -0.3718 H   0  0  0  0  0  0  0  0  0  0  0  0
   -4.2827    1.3876    1.1497 H   0  0  0  0  0  0  0  0  0  0  0  0
  1  2  1  0
  2  3  1  0
  3  4  2  0
  4  5  1  0
  5  6  2  0
  6  7  1  0
  7  8  1  0
  8  9  2  0
  9 10  1  0
 10 11  2  0
 11 12  1  0
 12 13  1  0
 13 14  2  0
 13 15  1  0
 15 16  1  0
 15 17  1  0
 11 18  1  0
 18 19  2  0
  6 20  1  0
 20 21  2  0
 19  8  1  0
 21  3  1  0
  1 22  1  0
  1 23  1  0
  1 24  1  0
  4 25  1  0
  5 26  1  0
  9 27  1  0
 10 28  1  0
 12 29  1  0
 16 30  1  0
 16 31  1  0
 16 32  1  0
 17 33  1  0
 17 34  1  0
 17 35  1  0
 18 36  1  0
 19 37  1  0
 20 38  1  0
 21 39  1  0
M  END
>  <Energy>  (8) 
-16.762641065773956

>  <Real charge>  (8) 
0

>  <Mult>  (8) 
1

$$$$
