mol_382 388
     RDKit          3D

 28 29  0  0  0  0  0  0  0  0999 V2000
   -1.8749   -2.3012   -2.0403 O   0  0  0  0  0  0  0  0  0  0  0  0
   -2.5570   -1.8771   -0.8618 C   0  0  0  0  0  0  0  0  0  0  0  0
   -2.1951   -0.4370   -0.4944 C   0  0  0  0  0  0  0  0  0  0  0  0
   -3.0429   -0.0164    0.5856 O   0  0  0  0  0  0  0  0  0  0  0  0
   -0.7330   -0.2631   -0.0613 C   0  0  0  0  0  0  0  0  0  0  0  0
   -0.5326    1.1458    0.2458 O   0  0  0  0  0  0  0  0  0  0  0  0
    0.7452    1.5300   -0.2772 C   0  0  0  0  0  0  0  0  0  0  0  0
    1.5464    2.1237    0.7336 O   0  0  0  0  0  0  0  0  0  0  0  0
    2.4405    1.0929    1.1931 C   0  0  0  0  0  0  0  0  0  0  0  0
    2.1384   -0.1432    0.5080 O   0  0  0  0  0  0  0  0  0  0  0  0
    1.4755    0.2767   -0.6896 C   0  0  0  0  0  0  0  0  0  0  0  0
    0.3521   -0.6557   -1.0699 C   0  0  0  0  0  0  0  0  0  0  0  0
   -0.0269   -0.3913   -2.4199 O   0  0  0  0  0  0  0  0  0  0  0  0
    2.4583    0.9416    2.7463 C   0  0  0  0  0  0  0  0  0  0  0  0
    0.8633    0.4268    3.3869 Cl  0  0  0  0  0  0  0  0  0  0  0  0
    2.9123    2.4966    3.5283 Cl  0  0  0  0  0  0  0  0  0  0  0  0
    3.6795   -0.2897    3.2361 Cl  0  0  0  0  0  0  0  0  0  0  0  0
   -2.2459   -3.1759   -2.2660 H   0  0  0  0  0  0  0  0  0  0  0  0
   -2.3086   -2.5614   -0.0430 H   0  0  0  0  0  0  0  0  0  0  0  0
   -3.6356   -1.9570   -1.0377 H   0  0  0  0  0  0  0  0  0  0  0  0
   -2.4093    0.2285   -1.3390 H   0  0  0  0  0  0  0  0  0  0  0  0
   -2.6699    0.8356    0.8913 H   0  0  0  0  0  0  0  0  0  0  0  0
   -0.5661   -0.7896    0.8866 H   0  0  0  0  0  0  0  0  0  0  0  0
    0.5815    2.2329   -1.0997 H   0  0  0  0  0  0  0  0  0  0  0  0
    3.4432    1.3922    0.8597 H   0  0  0  0  0  0  0  0  0  0  0  0
    2.2204    0.4534   -1.4721 H   0  0  0  0  0  0  0  0  0  0  0  0
    0.6283   -1.7111   -0.9788 H   0  0  0  0  0  0  0  0  0  0  0  0
   -0.6873   -1.0839   -2.6505 H   0  0  0  0  0  0  0  0  0  0  0  0
  1  2  1  0
  2  3  1  0
  3  4  1  0
  3  5  1  0
  5  6  1  0
  6  7  1  0
  7  8  1  0
  8  9  1  0
  9 10  1  0
 10 11  1  0
 11 12  1  0
 12 13  1  0
  9 14  1  0
 14 15  1  0
 14 16  1  0
 14 17  1  0
 11  7  1  0
 12  5  1  0
  1 18  1  0
  2 19  1  0
  2 20  1  0
  3 21  1  0
  4 22  1  0
  5 23  1  0
  7 24  1  0
  9 25  1  0
 11 26  1  0
 12 27  1  0
 13 28  1  0
M  END
>  <Energy>  (1) 
139.35225265507924

>  <Real charge>  (1) 
0

>  <Mult>  (1) 
1

$$$$
mol_382 168
     RDKit          3D

 28 29  0  0  0  0  0  0  0  0999 V2000
    2.8202    1.7995   -1.4254 O   0  0  0  0  0  0  0  0  0  0  0  0
    3.1654    1.1053   -0.2287 C   0  0  0  0  0  0  0  0  0  0  0  0
    2.4000   -0.2137   -0.1083 C   0  0  0  0  0  0  0  0  0  0  0  0
    2.9165   -0.9398    1.0180 O   0  0  0  0  0  0  0  0  0  0  0  0
    0.8886   -0.0315    0.0863 C   0  0  0  0  0  0  0  0  0  0  0  0
    0.2939   -1.3582    0.1734 O   0  0  0  0  0  0  0  0  0  0  0  0
   -0.9322   -1.3334   -0.5713 C   0  0  0  0  0  0  0  0  0  0  0  0
   -2.0230   -1.7581    0.2271 O   0  0  0  0  0  0  0  0  0  0  0  0
   -2.4497   -0.5768    0.9293 C   0  0  0  0  0  0  0  0  0  0  0  0
   -1.9722    0.5968    0.2287 O   0  0  0  0  0  0  0  0  0  0  0  0
   -1.2473    0.1023   -0.9061 C   0  0  0  0  0  0  0  0  0  0  0  0
    0.1244    0.7250   -1.0060 C   0  0  0  0  0  0  0  0  0  0  0  0
    0.6493    0.4830   -2.3103 O   0  0  0  0  0  0  0  0  0  0  0  0
   -3.9903   -0.5494    1.1714 C   0  0  0  0  0  0  0  0  0  0  0  0
   -4.4555    0.9186    2.1022 Cl  0  0  0  0  0  0  0  0  0  0  0  0
   -4.5111   -1.9865    2.1178 Cl  0  0  0  0  0  0  0  0  0  0  0  0
   -4.8901   -0.5385   -0.3849 Cl  0  0  0  0  0  0  0  0  0  0  0  0
    3.4317    2.5585   -1.4840 H   0  0  0  0  0  0  0  0  0  0  0  0
    4.2437    0.9107   -0.2390 H   0  0  0  0  0  0  0  0  0  0  0  0
    2.9593    1.7542    0.6296 H   0  0  0  0  0  0  0  0  0  0  0  0
    2.5849   -0.8337   -0.9937 H   0  0  0  0  0  0  0  0  0  0  0  0
    2.3252   -1.7131    1.1189 H   0  0  0  0  0  0  0  0  0  0  0  0
    0.6951    0.4296    1.0637 H   0  0  0  0  0  0  0  0  0  0  0  0
   -0.8183   -1.9774   -1.4484 H   0  0  0  0  0  0  0  0  0  0  0  0
   -1.9376   -0.5816    1.9004 H   0  0  0  0  0  0  0  0  0  0  0  0
   -1.8712    0.2055   -1.7991 H   0  0  0  0  0  0  0  0  0  0  0  0
    0.1138    1.8041   -0.8215 H   0  0  0  0  0  0  0  0  0  0  0  0
    1.4863    0.9984   -2.3601 H   0  0  0  0  0  0  0  0  0  0  0  0
  1  2  1  0
  2  3  1  0
  3  4  1  0
  3  5  1  0
  5  6  1  0
  6  7  1  0
  7  8  1  0
  8  9  1  0
  9 10  1  0
 10 11  1  0
 11 12  1  0
 12 13  1  0
  9 14  1  0
 14 15  1  0
 14 16  1  0
 14 17  1  0
 11  7  1  0
 12  5  1  0
  1 18  1  0
  2 19  1  0
  2 20  1  0
  3 21  1  0
  4 22  1  0
  5 23  1  0
  7 24  1  0
  9 25  1  0
 11 26  1  0
 12 27  1  0
 13 28  1  0
M  END
>  <Energy>  (2) 
139.40510470240375

>  <Real charge>  (2) 
0

>  <Mult>  (2) 
1

$$$$
mol_382 372
     RDKit          3D

 28 29  0  0  0  0  0  0  0  0999 V2000
   -2.7209    1.1139   -1.6754 O   0  0  0  0  0  0  0  0  0  0  0  0
   -3.2598    0.9947   -0.3573 C   0  0  0  0  0  0  0  0  0  0  0  0
   -2.3614    0.1117    0.5105 C   0  0  0  0  0  0  0  0  0  0  0  0
   -2.1983   -1.1569   -0.1466 O   0  0  0  0  0  0  0  0  0  0  0  0
   -0.9830    0.7286    0.7918 C   0  0  0  0  0  0  0  0  0  0  0  0
   -0.2694   -0.1626    1.6822 O   0  0  0  0  0  0  0  0  0  0  0  0
    1.0891   -0.2182    1.2505 C   0  0  0  0  0  0  0  0  0  0  0  0
    1.3452   -1.4562    0.5930 O   0  0  0  0  0  0  0  0  0  0  0  0
    2.2021   -1.1430   -0.5266 C   0  0  0  0  0  0  0  0  0  0  0  0
    2.2835    0.2895   -0.6836 O   0  0  0  0  0  0  0  0  0  0  0  0
    1.2972    0.8292    0.1903 C   0  0  0  0  0  0  0  0  0  0  0  0
   -0.0867    0.9253   -0.4317 C   0  0  0  0  0  0  0  0  0  0  0  0
   -0.2944    2.1883   -1.0526 O   0  0  0  0  0  0  0  0  0  0  0  0
    3.6096   -1.8152   -0.4244 C   0  0  0  0  0  0  0  0  0  0  0  0
    3.4450   -3.6002   -0.2800 Cl  0  0  0  0  0  0  0  0  0  0  0  0
    4.5848   -1.4697   -1.8939 Cl  0  0  0  0  0  0  0  0  0  0  0  0
    4.5136   -1.2156    1.0091 Cl  0  0  0  0  0  0  0  0  0  0  0  0
   -2.6874    0.1928   -2.0098 H   0  0  0  0  0  0  0  0  0  0  0  0
   -4.2559    0.5504   -0.4542 H   0  0  0  0  0  0  0  0  0  0  0  0
   -3.3650    1.9968    0.0688 H   0  0  0  0  0  0  0  0  0  0  0  0
   -2.8666   -0.0892    1.4625 H   0  0  0  0  0  0  0  0  0  0  0  0
   -1.6194   -1.6834    0.4425 H   0  0  0  0  0  0  0  0  0  0  0  0
   -1.1197    1.6793    1.3229 H   0  0  0  0  0  0  0  0  0  0  0  0
    1.7650   -0.1197    2.1051 H   0  0  0  0  0  0  0  0  0  0  0  0
    1.6923   -1.5290   -1.4184 H   0  0  0  0  0  0  0  0  0  0  0  0
    1.6287    1.7948    0.5860 H   0  0  0  0  0  0  0  0  0  0  0  0
   -0.2195    0.1467   -1.1914 H   0  0  0  0  0  0  0  0  0  0  0  0
   -1.1487    2.1168   -1.5349 H   0  0  0  0  0  0  0  0  0  0  0  0
  1  2  1  0
  2  3  1  0
  3  4  1  0
  3  5  1  0
  5  6  1  0
  6  7  1  0
  7  8  1  0
  8  9  1  0
  9 10  1  0
 10 11  1  0
 11 12  1  0
 12 13  1  0
  9 14  1  0
 14 15  1  0
 14 16  1  0
 14 17  1  0
 11  7  1  0
 12  5  1  0
  1 18  1  0
  2 19  1  0
  2 20  1  0
  3 21  1  0
  4 22  1  0
  5 23  1  0
  7 24  1  0
  9 25  1  0
 11 26  1  0
 12 27  1  0
 13 28  1  0
M  END
>  <Energy>  (3) 
140.23470100130731

>  <Real charge>  (3) 
0

>  <Mult>  (3) 
1

$$$$
