mol_705 155
     RDKit          3D

 14 14  0  0  0  0  0  0  0  0999 V2000
    2.3433    0.2054   -0.2208 N   0  0  0  0  0  0  0  0  0  0  0  0
    0.9647    0.0668   -0.0308 C   0  0  0  0  0  0  0  0  0  0  0  0
    0.1845    1.1795    0.2973 C   0  0  0  0  0  0  0  0  0  0  0  0
   -1.2080    1.0785    0.3718 C   0  0  0  0  0  0  0  0  0  0  0  0
   -1.8288   -0.1316    0.0750 C   0  0  0  0  0  0  0  0  0  0  0  0
   -3.5420   -0.2596    0.1616 Cl  0  0  0  0  0  0  0  0  0  0  0  0
   -1.0697   -1.2330   -0.3102 C   0  0  0  0  0  0  0  0  0  0  0  0
    0.3223   -1.1241   -0.3824 C   0  0  0  0  0  0  0  0  0  0  0  0
    2.8606   -0.6653   -0.1489 H   0  0  0  0  0  0  0  0  0  0  0  0
    2.7640    0.9491    0.3274 H   0  0  0  0  0  0  0  0  0  0  0  0
    0.6555    2.1381    0.4987 H   0  0  0  0  0  0  0  0  0  0  0  0
   -1.7974    1.9486    0.6468 H   0  0  0  0  0  0  0  0  0  0  0  0
   -1.5509   -2.1719   -0.5690 H   0  0  0  0  0  0  0  0  0  0  0  0
    0.9020   -1.9806   -0.7166 H   0  0  0  0  0  0  0  0  0  0  0  0
  1  2  1  0
  2  3  2  0
  3  4  1  0
  4  5  2  0
  5  6  1  0
  5  7  1  0
  7  8  2  0
  8  2  1  0
  1  9  1  0
  1 10  1  0
  3 11  1  0
  4 12  1  0
  7 13  1  0
  8 14  1  0
M  END
>  <Energy>  (1) 
3.9930863421143057

>  <Real charge>  (1) 
0

>  <Mult>  (1) 
1

$$$$
