mol_56 109
     RDKit          3D

 16 16  0  0  0  0  0  0  0  0999 V2000
   -2.0793   -0.7770   -0.0820 C   0  0  0  0  0  0  0  0  0  0  0  0
   -0.6322   -0.3842   -0.0209 C   0  0  0  0  0  0  0  0  0  0  0  0
    0.3674   -1.3635    0.0552 C   0  0  0  0  0  0  0  0  0  0  0  0
    1.7144   -0.9995    0.1121 C   0  0  0  0  0  0  0  0  0  0  0  0
    2.0760    0.3466    0.0935 C   0  0  0  0  0  0  0  0  0  0  0  0
    1.0919    1.3318    0.0180 C   0  0  0  0  0  0  0  0  0  0  0  0
   -0.2516    0.9616   -0.0385 C   0  0  0  0  0  0  0  0  0  0  0  0
   -1.2262    1.9171   -0.1127 O   0  0  0  0  0  0  0  0  0  0  0  0
   -2.5327   -0.4118   -1.0092 H   0  0  0  0  0  0  0  0  0  0  0  0
   -2.2011   -1.8650   -0.0586 H   0  0  0  0  0  0  0  0  0  0  0  0
   -2.6211   -0.3634    0.7747 H   0  0  0  0  0  0  0  0  0  0  0  0
    0.1026   -2.4182    0.0706 H   0  0  0  0  0  0  0  0  0  0  0  0
    2.4811   -1.7679    0.1709 H   0  0  0  0  0  0  0  0  0  0  0  0
    3.1250    0.6270    0.1380 H   0  0  0  0  0  0  0  0  0  0  0  0
    1.3889    2.3755    0.0045 H   0  0  0  0  0  0  0  0  0  0  0  0
   -0.8033    2.7908   -0.1154 H   0  0  0  0  0  0  0  0  0  0  0  0
  1  2  1  0
  2  3  2  0
  3  4  1  0
  4  5  2  0
  5  6  1  0
  6  7  2  0
  7  8  1  0
  7  2  1  0
  1  9  1  0
  1 10  1  0
  1 11  1  0
  3 12  1  0
  4 13  1  0
  5 14  1  0
  6 15  1  0
  8 16  1  0
M  END
>  <Energy>  (1) 
9.372754149048465

>  <Real charge>  (1) 
0

>  <Mult>  (1) 
1

$$$$
mol_56 110
     RDKit          3D

 16 16  0  0  0  0  0  0  0  0999 V2000
   -2.1085   -0.2783    0.1744 C   0  0  0  0  0  0  0  0  0  0  0  0
   -0.6160   -0.1756    0.0575 C   0  0  0  0  0  0  0  0  0  0  0  0
    0.1591   -1.3460    0.0827 C   0  0  0  0  0  0  0  0  0  0  0  0
    1.5509   -1.2862   -0.0237 C   0  0  0  0  0  0  0  0  0  0  0  0
    2.1877   -0.0550   -0.1568 C   0  0  0  0  0  0  0  0  0  0  0  0
    1.4323    1.1151   -0.1834 C   0  0  0  0  0  0  0  0  0  0  0  0
    0.0438    1.0523   -0.0770 C   0  0  0  0  0  0  0  0  0  0  0  0
   -0.6148    2.2489   -0.1125 O   0  0  0  0  0  0  0  0  0  0  0  0
   -2.4571    0.2616    1.0606 H   0  0  0  0  0  0  0  0  0  0  0  0
   -2.4361   -1.3188    0.2714 H   0  0  0  0  0  0  0  0  0  0  0  0
   -2.5877    0.1369   -0.7181 H   0  0  0  0  0  0  0  0  0  0  0  0
   -0.3166   -2.3191    0.1858 H   0  0  0  0  0  0  0  0  0  0  0  0
    2.1370   -2.2013   -0.0026 H   0  0  0  0  0  0  0  0  0  0  0  0
    3.2698   -0.0050   -0.2398 H   0  0  0  0  0  0  0  0  0  0  0  0
    1.9236    2.0786   -0.2870 H   0  0  0  0  0  0  0  0  0  0  0  0
   -1.5675    2.0918   -0.0315 H   0  0  0  0  0  0  0  0  0  0  0  0
  1  2  1  0
  2  3  2  0
  3  4  1  0
  4  5  2  0
  5  6  1  0
  6  7  2  0
  7  8  1  0
  7  2  1  0
  1  9  1  0
  1 10  1  0
  1 11  1  0
  3 12  1  0
  4 13  1  0
  5 14  1  0
  6 15  1  0
  8 16  1  0
M  END
>  <Energy>  (2) 
9.76962211389521

>  <Real charge>  (2) 
0

>  <Mult>  (2) 
1

$$$$
