mol_243 15
     RDKit          3D

  6  5  0  0  0  0  0  0  0  0999 V2000
   -1.0001   -0.9613   -1.3650 Cl  0  0  0  0  0  0  0  0  0  0  0  0
   -0.3877    0.0067    0.0007 C   0  0  0  0  0  0  0  0  0  0  0  0
   -0.9521    1.6896   -0.1620 Cl  0  0  0  0  0  0  0  0  0  0  0  0
   -0.9896   -0.6777    1.5327 Cl  0  0  0  0  0  0  0  0  0  0  0  0
    1.0829   -0.0186   -0.0021 C   0  0  0  0  0  0  0  0  0  0  0  0
    2.2467   -0.0387   -0.0043 N   0  0  0  0  0  0  0  0  0  0  0  0
  1  2  1  0
  2  3  1  0
  2  4  1  0
  2  5  1  0
  5  6  3  0
M  END
>  <Energy>  (1) 
32.728175394529245

>  <Real charge>  (1) 
0

>  <Mult>  (1) 
1

$$$$
