mol_1025 114
     RDKit          3D

 13 13  0  0  0  0  0  0  0  0999 V2000
   -2.4462    0.3606   -0.0224 O   0  0  0  0  0  0  0  0  0  0  0  0
   -1.0843    0.1956   -0.0096 C   0  0  0  0  0  0  0  0  0  0  0  0
   -0.2491    1.3153    0.0094 C   0  0  0  0  0  0  0  0  0  0  0  0
   -0.8893    2.9180    0.0173 Cl  0  0  0  0  0  0  0  0  0  0  0  0
    1.1394    1.1527    0.0225 C   0  0  0  0  0  0  0  0  0  0  0  0
    1.6964   -0.1279    0.0167 C   0  0  0  0  0  0  0  0  0  0  0  0
    0.8653   -1.2486   -0.0023 C   0  0  0  0  0  0  0  0  0  0  0  0
   -0.5208   -1.0846   -0.0154 C   0  0  0  0  0  0  0  0  0  0  0  0
   -1.5315   -2.4835   -0.0388 Cl  0  0  0  0  0  0  0  0  0  0  0  0
   -2.8524   -0.5257   -0.0348 H   0  0  0  0  0  0  0  0  0  0  0  0
    1.7921    2.0225    0.0373 H   0  0  0  0  0  0  0  0  0  0  0  0
    2.7772   -0.2506    0.0269 H   0  0  0  0  0  0  0  0  0  0  0  0
    1.3032   -2.2438   -0.0068 H   0  0  0  0  0  0  0  0  0  0  0  0
  1  2  1  0
  2  3  2  0
  3  4  1  0
  3  5  1  0
  5  6  2  0
  6  7  1  0
  7  8  2  0
  8  9  1  0
  8  2  1  0
  1 10  1  0
  5 11  1  0
  6 12  1  0
  7 13  1  0
M  END
>  <Energy>  (1) 
30.183117215729236

>  <Real charge>  (1) 
0

>  <Mult>  (1) 
1

$$$$
