mol_68 30
     RDKit          3D

 14 14  0  0  0  0  0  0  0  0999 V2000
    2.3104    0.8661   -0.7421 N   0  0  0  0  0  0  0  0  0  0  0  0
    1.7879    0.0416    0.2178 C   0  0  0  0  0  0  0  0  0  0  0  0
    2.4948   -0.5260    1.0398 O   0  0  0  0  0  0  0  0  0  0  0  0
    0.3081   -0.1144    0.1907 C   0  0  0  0  0  0  0  0  0  0  0  0
   -0.3194   -0.9284    1.1216 C   0  0  0  0  0  0  0  0  0  0  0  0
   -1.6664   -1.1024    1.1373 N   0  0  0  0  0  0  0  0  0  0  0  0
   -2.3480   -0.4267    0.1829 C   0  0  0  0  0  0  0  0  0  0  0  0
   -1.7191    0.3875   -0.7480 C   0  0  0  0  0  0  0  0  0  0  0  0
   -0.3779    0.5685   -0.7734 N   0  0  0  0  0  0  0  0  0  0  0  0
    3.3078    1.0178   -0.7826 H   0  0  0  0  0  0  0  0  0  0  0  0
    1.6938    1.3199   -1.4072 H   0  0  0  0  0  0  0  0  0  0  0  0
    0.2391   -1.4646    1.8816 H   0  0  0  0  0  0  0  0  0  0  0  0
   -3.4246   -0.5581    0.1858 H   0  0  0  0  0  0  0  0  0  0  0  0
   -2.2864    0.9195   -1.5041 H   0  0  0  0  0  0  0  0  0  0  0  0
  1  2  1  0
  2  3  2  0
  2  4  1  0
  4  5  2  0
  5  6  1  0
  6  7  2  0
  7  8  1  0
  8  9  2  0
  9  4  1  0
  1 10  1  0
  1 11  1  0
  5 12  1  0
  7 13  1  0
  8 14  1  0
M  END
>  <Energy>  (1) 
67.62149494644267

>  <Real charge>  (1) 
0

>  <Mult>  (1) 
1

$$$$
