mol_838 142
     RDKit          3D

 28 28  0  0  0  0  0  0  0  0999 V2000
    5.2436   -0.1446    0.4111 C   0  0  0  0  0  0  0  0  0  0  0  0
    4.4350    0.8159   -0.2550 O   0  0  0  0  0  0  0  0  0  0  0  0
    3.0809    0.6093   -0.2631 C   0  0  0  0  0  0  0  0  0  0  0  0
    2.4356   -0.4514    0.3763 C   0  0  0  0  0  0  0  0  0  0  0  0
    1.0407   -0.5814    0.3145 C   0  0  0  0  0  0  0  0  0  0  0  0
    0.2674    0.3398   -0.3921 C   0  0  0  0  0  0  0  0  0  0  0  0
   -1.1382    0.2761   -0.4812 N   0  0  0  0  0  0  0  0  0  0  0  0
   -1.9492   -0.7868   -0.1488 C   0  0  0  0  0  0  0  0  0  0  0  0
   -1.5432   -1.9137    0.1229 O   0  0  0  0  0  0  0  0  0  0  0  0
   -3.3148   -0.4873   -0.1805 N   0  0  0  0  0  0  0  0  0  0  0  0
   -3.8600    0.8345    0.1029 C   0  0  0  0  0  0  0  0  0  0  0  0
   -4.2325   -1.5941    0.0347 C   0  0  0  0  0  0  0  0  0  0  0  0
    0.9064    1.4098   -1.0234 C   0  0  0  0  0  0  0  0  0  0  0  0
    2.2988    1.5410   -0.9613 C   0  0  0  0  0  0  0  0  0  0  0  0
    3.0162    2.8910   -1.7739 Cl  0  0  0  0  0  0  0  0  0  0  0  0
    6.2880    0.1621    0.2984 H   0  0  0  0  0  0  0  0  0  0  0  0
    5.0195   -0.1733    1.4825 H   0  0  0  0  0  0  0  0  0  0  0  0
    5.1371   -1.1351   -0.0434 H   0  0  0  0  0  0  0  0  0  0  0  0
    2.9822   -1.2014    0.9391 H   0  0  0  0  0  0  0  0  0  0  0  0
    0.5849   -1.4166    0.8399 H   0  0  0  0  0  0  0  0  0  0  0  0
   -1.5795    0.9721   -1.0618 H   0  0  0  0  0  0  0  0  0  0  0  0
   -3.1383    1.6398   -0.0397 H   0  0  0  0  0  0  0  0  0  0  0  0
   -4.7205    1.0081   -0.5497 H   0  0  0  0  0  0  0  0  0  0  0  0
   -4.1853    0.8570    1.1480 H   0  0  0  0  0  0  0  0  0  0  0  0
   -3.8359   -2.5214   -0.3893 H   0  0  0  0  0  0  0  0  0  0  0  0
   -4.3806   -1.7279    1.1106 H   0  0  0  0  0  0  0  0  0  0  0  0
   -5.1891   -1.3715   -0.4470 H   0  0  0  0  0  0  0  0  0  0  0  0
    0.3309    2.1500   -1.5722 H   0  0  0  0  0  0  0  0  0  0  0  0
  1  2  1  0
  2  3  1  0
  3  4  2  0
  4  5  1  0
  5  6  2  0
  6  7  1  0
  7  8  1  0
  8  9  2  0
  8 10  1  0
 10 11  1  0
 10 12  1  0
  6 13  1  0
 13 14  2  0
 14 15  1  0
 14  3  1  0
  1 16  1  0
  1 17  1  0
  1 18  1  0
  4 19  1  0
  5 20  1  0
  7 21  1  0
 11 22  1  0
 11 23  1  0
 11 24  1  0
 12 25  1  0
 12 26  1  0
 12 27  1  0
 13 28  1  0
M  END
>  <Energy>  (1) 
-31.439778406702427

>  <Real charge>  (1) 
0

>  <Mult>  (1) 
1

$$$$
mol_838 52
     RDKit          3D

 28 28  0  0  0  0  0  0  0  0999 V2000
    5.3390    0.0981   -0.5802 C   0  0  0  0  0  0  0  0  0  0  0  0
    4.3198    1.0859   -0.5156 O   0  0  0  0  0  0  0  0  0  0  0  0
    3.0277    0.6610   -0.3514 C   0  0  0  0  0  0  0  0  0  0  0  0
    2.6359   -0.6781   -0.2918 C   0  0  0  0  0  0  0  0  0  0  0  0
    1.2866   -1.0156   -0.1247 C   0  0  0  0  0  0  0  0  0  0  0  0
    0.3066   -0.0244   -0.0058 C   0  0  0  0  0  0  0  0  0  0  0  0
   -1.0296   -0.4490    0.1426 N   0  0  0  0  0  0  0  0  0  0  0  0
   -2.1090    0.3167    0.5254 C   0  0  0  0  0  0  0  0  0  0  0  0
   -2.0285    1.4588    0.9689 O   0  0  0  0  0  0  0  0  0  0  0  0
   -3.3386   -0.3399    0.4034 N   0  0  0  0  0  0  0  0  0  0  0  0
   -3.6117   -1.3452   -0.6158 C   0  0  0  0  0  0  0  0  0  0  0  0
   -4.5061    0.3730    0.8963 C   0  0  0  0  0  0  0  0  0  0  0  0
    0.6911    1.3139   -0.0763 C   0  0  0  0  0  0  0  0  0  0  0  0
    2.0396    1.6528   -0.2452 C   0  0  0  0  0  0  0  0  0  0  0  0
    2.4470    3.3341   -0.3268 Cl  0  0  0  0  0  0  0  0  0  0  0  0
    5.3784   -0.4906    0.3422 H   0  0  0  0  0  0  0  0  0  0  0  0
    6.2982    0.6137   -0.6866 H   0  0  0  0  0  0  0  0  0  0  0  0
    5.2086   -0.5456   -1.4562 H   0  0  0  0  0  0  0  0  0  0  0  0
    3.3529   -1.4883   -0.3744 H   0  0  0  0  0  0  0  0  0  0  0  0
    1.0177   -2.0685   -0.0849 H   0  0  0  0  0  0  0  0  0  0  0  0
   -1.1766   -1.4429    0.2217 H   0  0  0  0  0  0  0  0  0  0  0  0
   -4.3195   -2.0752   -0.2124 H   0  0  0  0  0  0  0  0  0  0  0  0
   -2.7171   -1.8709   -0.9524 H   0  0  0  0  0  0  0  0  0  0  0  0
   -4.0560   -0.8462   -1.4830 H   0  0  0  0  0  0  0  0  0  0  0  0
   -4.8657    1.0493    0.1148 H   0  0  0  0  0  0  0  0  0  0  0  0
   -5.2888   -0.3462    1.1546 H   0  0  0  0  0  0  0  0  0  0  0  0
   -4.2606    0.9565    1.7887 H   0  0  0  0  0  0  0  0  0  0  0  0
   -0.0413    2.1129   -0.0120 H   0  0  0  0  0  0  0  0  0  0  0  0
  1  2  1  0
  2  3  1  0
  3  4  2  0
  4  5  1  0
  5  6  2  0
  6  7  1  0
  7  8  1  0
  8  9  2  0
  8 10  1  0
 10 11  1  0
 10 12  1  0
  6 13  1  0
 13 14  2  0
 14 15  1  0
 14  3  1  0
  1 16  1  0
  1 17  1  0
  1 18  1  0
  4 19  1  0
  5 20  1  0
  7 21  1  0
 11 22  1  0
 11 23  1  0
 11 24  1  0
 12 25  1  0
 12 26  1  0
 12 27  1  0
 13 28  1  0
M  END
>  <Energy>  (2) 
-30.486494440587876

>  <Real charge>  (2) 
0

>  <Mult>  (2) 
1

$$$$
