mol_921 397
     RDKit          3D

 51 54  0  0  0  0  0  0  0  0999 V2000
   -2.4896    0.6239    2.2498 C   0  0  0  0  0  0  0  0  0  0  0  0
   -2.5746    0.0685    0.8188 C   0  0  0  0  0  0  0  0  0  0  0  0
   -2.0176   -1.3718    0.7784 C   0  0  0  0  0  0  0  0  0  0  0  0
   -0.4938   -1.4281    0.8929 C   0  0  0  0  0  0  0  0  0  0  0  0
    0.2059   -0.5913   -0.1997 C   0  0  0  0  0  0  0  0  0  0  0  0
   -0.3117    0.8691   -0.1554 C   0  0  0  0  0  0  0  0  0  0  0  0
    0.3249    1.7127   -1.2641 C   0  0  0  0  0  0  0  0  0  0  0  0
    1.8423    1.6852   -1.1819 C   0  0  0  0  0  0  0  0  0  0  0  0
    2.3939    0.2500   -1.2610 C   0  0  0  0  0  0  0  0  0  0  0  0
    3.9296    0.2991   -1.2291 C   0  0  0  0  0  0  0  0  0  0  0  0
    4.4450    0.5798    0.1626 C   0  0  0  0  0  0  0  0  0  0  0  0
    5.3470    1.3924    0.3623 O   0  0  0  0  0  0  0  0  0  0  0  0
    3.8882   -0.2705    1.2764 C   0  0  0  0  0  0  0  0  0  0  0  0
    2.3637   -0.3152    1.2258 C   0  0  0  0  0  0  0  0  0  0  0  0
    1.7847   -0.6927   -0.1674 C   0  0  0  0  0  0  0  0  0  0  0  0
    2.1819   -2.1585   -0.4930 C   0  0  0  0  0  0  0  0  0  0  0  0
   -1.8526    0.9758   -0.1979 C   0  0  0  0  0  0  0  0  0  0  0  0
   -2.5102    0.6200   -1.5449 C   0  0  0  0  0  0  0  0  0  0  0  0
   -3.9156    0.1130   -1.2151 C   0  0  0  0  0  0  0  0  0  0  0  0
   -4.0285    0.1480    0.3077 C   0  0  0  0  0  0  0  0  0  0  0  0
   -4.8327   -0.9096    0.7962 O   0  0  0  0  0  0  0  0  0  0  0  0
   -1.4589    0.6701    2.6138 H   0  0  0  0  0  0  0  0  0  0  0  0
   -3.0632    0.0022    2.9461 H   0  0  0  0  0  0  0  0  0  0  0  0
   -2.8961    1.6402    2.3053 H   0  0  0  0  0  0  0  0  0  0  0  0
   -2.3060   -1.8725   -0.1544 H   0  0  0  0  0  0  0  0  0  0  0  0
   -2.4577   -1.9695    1.5867 H   0  0  0  0  0  0  0  0  0  0  0  0
   -0.1966   -1.0872    1.8897 H   0  0  0  0  0  0  0  0  0  0  0  0
   -0.1965   -2.4790    0.8203 H   0  0  0  0  0  0  0  0  0  0  0  0
   -0.1049   -1.0141   -1.1660 H   0  0  0  0  0  0  0  0  0  0  0  0
   -0.0018    1.3058    0.8033 H   0  0  0  0  0  0  0  0  0  0  0  0
   -0.0194    2.7511   -1.1876 H   0  0  0  0  0  0  0  0  0  0  0  0
    0.0178    1.3485   -2.2518 H   0  0  0  0  0  0  0  0  0  0  0  0
    2.1662    2.1798   -0.2585 H   0  0  0  0  0  0  0  0  0  0  0  0
    2.2474    2.2813   -2.0093 H   0  0  0  0  0  0  0  0  0  0  0  0
    2.1066   -0.1445   -2.2465 H   0  0  0  0  0  0  0  0  0  0  0  0
    4.3656   -0.6472   -1.5647 H   0  0  0  0  0  0  0  0  0  0  0  0
    4.3024    1.0762   -1.9065 H   0  0  0  0  0  0  0  0  0  0  0  0
    4.2083    0.1504    2.2360 H   0  0  0  0  0  0  0  0  0  0  0  0
    4.3222   -1.2721    1.1952 H   0  0  0  0  0  0  0  0  0  0  0  0
    2.0267   -1.0289    1.9866 H   0  0  0  0  0  0  0  0  0  0  0  0
    1.9856    0.6648    1.5374 H   0  0  0  0  0  0  0  0  0  0  0  0
    1.7198   -2.4905   -1.4296 H   0  0  0  0  0  0  0  0  0  0  0  0
    1.8706   -2.8480    0.2979 H   0  0  0  0  0  0  0  0  0  0  0  0
    3.2615   -2.2899   -0.6048 H   0  0  0  0  0  0  0  0  0  0  0  0
   -2.1164    2.0227    0.0167 H   0  0  0  0  0  0  0  0  0  0  0  0
   -2.5525    1.4946   -2.2033 H   0  0  0  0  0  0  0  0  0  0  0  0
   -1.9620   -0.1606   -2.0820 H   0  0  0  0  0  0  0  0  0  0  0  0
   -4.6834    0.7459   -1.6736 H   0  0  0  0  0  0  0  0  0  0  0  0
   -4.0661   -0.8981   -1.6109 H   0  0  0  0  0  0  0  0  0  0  0  0
   -4.4914    1.0951    0.6134 H   0  0  0  0  0  0  0  0  0  0  0  0
   -5.7082   -0.8265    0.3812 H   0  0  0  0  0  0  0  0  0  0  0  0
  1  2  1  0
  2  3  1  0
  3  4  1  0
  4  5  1  0
  5  6  1  0
  6  7  1  0
  7  8  1  0
  8  9  1  0
  9 10  1  0
 10 11  1  0
 11 12  2  0
 11 13  1  0
 13 14  1  0
 14 15  1  0
 15 16  1  0
  6 17  1  0
 17 18  1  0
 18 19  1  0
 19 20  1  0
 20 21  1  0
 15  5  1  0
 15  9  1  0
 17  2  1  0
 20  2  1  0
  1 22  1  0
  1 23  1  0
  1 24  1  0
  3 25  1  0
  3 26  1  0
  4 27  1  0
  4 28  1  0
  5 29  1  0
  6 30  1  0
  7 31  1  0
  7 32  1  0
  8 33  1  0
  8 34  1  0
  9 35  1  0
 10 36  1  0
 10 37  1  0
 13 38  1  0
 13 39  1  0
 14 40  1  0
 14 41  1  0
 16 42  1  0
 16 43  1  0
 16 44  1  0
 17 45  1  0
 18 46  1  0
 18 47  1  0
 19 48  1  0
 19 49  1  0
 20 50  1  0
 21 51  1  0
M  END
>  <Energy>  (1) 
68.84422625807765

>  <Real charge>  (1) 
0

>  <Mult>  (1) 
1

$$$$
mol_921 443
     RDKit          3D

 51 54  0  0  0  0  0  0  0  0999 V2000
    3.1226   -0.8337   -1.5112 C   0  0  0  0  0  0  0  0  0  0  0  0
    2.7273   -0.4073   -0.0880 C   0  0  0  0  0  0  0  0  0  0  0  0
    1.9192   -1.5347    0.5937 C   0  0  0  0  0  0  0  0  0  0  0  0
    0.4937   -1.6618    0.0548 C   0  0  0  0  0  0  0  0  0  0  0  0
   -0.2900   -0.3392    0.1737 C   0  0  0  0  0  0  0  0  0  0  0  0
    0.4826    0.8039   -0.5414 C   0  0  0  0  0  0  0  0  0  0  0  0
   -0.2487    2.1497   -0.4208 C   0  0  0  0  0  0  0  0  0  0  0  0
   -1.7019    2.0665   -0.8753 C   0  0  0  0  0  0  0  0  0  0  0  0
   -2.4484    0.9661   -0.1146 C   0  0  0  0  0  0  0  0  0  0  0  0
   -3.9414    0.9865   -0.4536 C   0  0  0  0  0  0  0  0  0  0  0  0
   -4.6719   -0.0759    0.3343 C   0  0  0  0  0  0  0  0  0  0  0  0
   -5.7572    0.1548    0.8671 O   0  0  0  0  0  0  0  0  0  0  0  0
   -4.0797   -1.4649    0.3270 C   0  0  0  0  0  0  0  0  0  0  0  0
   -2.5767   -1.4367    0.5956 C   0  0  0  0  0  0  0  0  0  0  0  0
   -1.7908   -0.4390   -0.3050 C   0  0  0  0  0  0  0  0  0  0  0  0
   -1.8747   -0.9260   -1.7735 C   0  0  0  0  0  0  0  0  0  0  0  0
    1.9516    0.9265   -0.0782 C   0  0  0  0  0  0  0  0  0  0  0  0
    2.1591    1.4659    1.3498 C   0  0  0  0  0  0  0  0  0  0  0  0
    3.4772    0.8689    1.8466 C   0  0  0  0  0  0  0  0  0  0  0  0
    3.9869   -0.0230    0.7164 C   0  0  0  0  0  0  0  0  0  0  0  0
    4.6776   -1.1539    1.2141 O   0  0  0  0  0  0  0  0  0  0  0  0
    3.7119   -0.0552   -2.0090 H   0  0  0  0  0  0  0  0  0  0  0  0
    2.2494   -1.0277   -2.1411 H   0  0  0  0  0  0  0  0  0  0  0  0
    3.7311   -1.7447   -1.4926 H   0  0  0  0  0  0  0  0  0  0  0  0
    1.8581   -1.3663    1.6762 H   0  0  0  0  0  0  0  0  0  0  0  0
    2.4336   -2.4961    0.4695 H   0  0  0  0  0  0  0  0  0  0  0  0
    0.5315   -1.9983   -0.9860 H   0  0  0  0  0  0  0  0  0  0  0  0
   -0.0069   -2.4533    0.6219 H   0  0  0  0  0  0  0  0  0  0  0  0
   -0.3243   -0.0916    1.2444 H   0  0  0  0  0  0  0  0  0  0  0  0
    0.5239    0.5604   -1.6110 H   0  0  0  0  0  0  0  0  0  0  0  0
   -0.2315    2.4992    0.6186 H   0  0  0  0  0  0  0  0  0  0  0  0
    0.2710    2.9098   -1.0165 H   0  0  0  0  0  0  0  0  0  0  0  0
   -1.7482    1.8947   -1.9567 H   0  0  0  0  0  0  0  0  0  0  0  0
   -2.1821    3.0361   -0.6947 H   0  0  0  0  0  0  0  0  0  0  0  0
   -2.3734    1.2139    0.9563 H   0  0  0  0  0  0  0  0  0  0  0  0
   -4.3672    1.9612   -0.1871 H   0  0  0  0  0  0  0  0  0  0  0  0
   -4.1300    0.8264   -1.5195 H   0  0  0  0  0  0  0  0  0  0  0  0
   -4.3041   -1.9280   -0.6390 H   0  0  0  0  0  0  0  0  0  0  0  0
   -4.5742   -2.0615    1.1017 H   0  0  0  0  0  0  0  0  0  0  0  0
   -2.4186   -1.1688    1.6490 H   0  0  0  0  0  0  0  0  0  0  0  0
   -2.1935   -2.4559    0.4729 H   0  0  0  0  0  0  0  0  0  0  0  0
   -2.8976   -0.9133   -2.1601 H   0  0  0  0  0  0  0  0  0  0  0  0
   -1.5244   -1.9593   -1.8686 H   0  0  0  0  0  0  0  0  0  0  0  0
   -1.2767   -0.3141   -2.4534 H   0  0  0  0  0  0  0  0  0  0  0  0
    2.4545    1.6301   -0.7592 H   0  0  0  0  0  0  0  0  0  0  0  0
    2.1985    2.5608    1.3525 H   0  0  0  0  0  0  0  0  0  0  0  0
    1.3510    1.1718    2.0272 H   0  0  0  0  0  0  0  0  0  0  0  0
    4.2062    1.6533    2.0782 H   0  0  0  0  0  0  0  0  0  0  0  0
    3.3221    0.3029    2.7725 H   0  0  0  0  0  0  0  0  0  0  0  0
    4.6822    0.5504    0.0900 H   0  0  0  0  0  0  0  0  0  0  0  0
    5.4110   -0.8299    1.7643 H   0  0  0  0  0  0  0  0  0  0  0  0
  1  2  1  0
  2  3  1  0
  3  4  1  0
  4  5  1  0
  5  6  1  0
  6  7  1  0
  7  8  1  0
  8  9  1  0
  9 10  1  0
 10 11  1  0
 11 12  2  0
 11 13  1  0
 13 14  1  0
 14 15  1  0
 15 16  1  0
  6 17  1  0
 17 18  1  0
 18 19  1  0
 19 20  1  0
 20 21  1  0
 15  5  1  0
 15  9  1  0
 17  2  1  0
 20  2  1  0
  1 22  1  0
  1 23  1  0
  1 24  1  0
  3 25  1  0
  3 26  1  0
  4 27  1  0
  4 28  1  0
  5 29  1  0
  6 30  1  0
  7 31  1  0
  7 32  1  0
  8 33  1  0
  8 34  1  0
  9 35  1  0
 10 36  1  0
 10 37  1  0
 13 38  1  0
 13 39  1  0
 14 40  1  0
 14 41  1  0
 16 42  1  0
 16 43  1  0
 16 44  1  0
 17 45  1  0
 18 46  1  0
 18 47  1  0
 19 48  1  0
 19 49  1  0
 20 50  1  0
 21 51  1  0
M  END
>  <Energy>  (2) 
69.19620180905105

>  <Real charge>  (2) 
0

>  <Mult>  (2) 
1

$$$$
mol_921 329
     RDKit          3D

 51 54  0  0  0  0  0  0  0  0999 V2000
   -2.4432   -1.6259   -1.6769 C   0  0  0  0  0  0  0  0  0  0  0  0
   -2.5790   -0.6604   -0.4868 C   0  0  0  0  0  0  0  0  0  0  0  0
   -2.0935   -1.3451    0.8110 C   0  0  0  0  0  0  0  0  0  0  0  0
   -0.5748   -1.5117    0.8749 C   0  0  0  0  0  0  0  0  0  0  0  0
    0.1680   -0.1679    0.7136 C   0  0  0  0  0  0  0  0  0  0  0  0
   -0.2783    0.5270   -0.5980 C   0  0  0  0  0  0  0  0  0  0  0  0
    0.4008    1.8909   -0.7573 C   0  0  0  0  0  0  0  0  0  0  0  0
    1.9150    1.7672   -0.7108 C   0  0  0  0  0  0  0  0  0  0  0  0
    2.3960    1.1136    0.5975 C   0  0  0  0  0  0  0  0  0  0  0  0
    3.9322    1.0712    0.6034 C   0  0  0  0  0  0  0  0  0  0  0  0
    4.4607   -0.0139   -0.3047 C   0  0  0  0  0  0  0  0  0  0  0  0
    5.4075    0.1884   -1.0640 O   0  0  0  0  0  0  0  0  0  0  0  0
    3.8586   -1.3870   -0.1441 C   0  0  0  0  0  0  0  0  0  0  0  0
    2.3338   -1.3254   -0.1436 C   0  0  0  0  0  0  0  0  0  0  0  0
    1.7400   -0.2869    0.8501 C   0  0  0  0  0  0  0  0  0  0  0  0
    2.0668   -0.7388    2.2997 C   0  0  0  0  0  0  0  0  0  0  0  0
   -1.8126    0.6566   -0.7327 C   0  0  0  0  0  0  0  0  0  0  0  0
   -2.4827    1.6642    0.2193 C   0  0  0  0  0  0  0  0  0  0  0  0
   -3.9059    1.1516    0.4675 C   0  0  0  0  0  0  0  0  0  0  0  0
   -4.0305   -0.1538   -0.3197 C   0  0  0  0  0  0  0  0  0  0  0  0
   -4.6175    0.1377   -1.5860 O   0  0  0  0  0  0  0  0  0  0  0  0
   -2.7308   -1.1516   -2.6215 H   0  0  0  0  0  0  0  0  0  0  0  0
   -3.0838   -2.5038   -1.5377 H   0  0  0  0  0  0  0  0  0  0  0  0
   -1.4163   -1.9807   -1.8050 H   0  0  0  0  0  0  0  0  0  0  0  0
   -2.5680   -2.3298    0.9102 H   0  0  0  0  0  0  0  0  0  0  0  0
   -2.4071   -0.7758    1.6946 H   0  0  0  0  0  0  0  0  0  0  0  0
   -0.3339   -1.9687    1.8399 H   0  0  0  0  0  0  0  0  0  0  0  0
   -0.2583   -2.2230    0.1057 H   0  0  0  0  0  0  0  0  0  0  0  0
   -0.1600    0.4727    1.5451 H   0  0  0  0  0  0  0  0  0  0  0  0
    0.0503   -0.0990   -1.4382 H   0  0  0  0  0  0  0  0  0  0  0  0
    0.1075    2.3448   -1.7115 H   0  0  0  0  0  0  0  0  0  0  0  0
    0.0778    2.5785    0.0335 H   0  0  0  0  0  0  0  0  0  0  0  0
    2.2613    1.2005   -1.5831 H   0  0  0  0  0  0  0  0  0  0  0  0
    2.3498    2.7704   -0.8025 H   0  0  0  0  0  0  0  0  0  0  0  0
    2.0912    1.7828    1.4152 H   0  0  0  0  0  0  0  0  0  0  0  0
    4.3213    0.8863    1.6097 H   0  0  0  0  0  0  0  0  0  0  0  0
    4.3432    2.0341    0.2781 H   0  0  0  0  0  0  0  0  0  0  0  0
    4.2425   -1.8250    0.7827 H   0  0  0  0  0  0  0  0  0  0  0  0
    4.1965   -2.0198   -0.9722 H   0  0  0  0  0  0  0  0  0  0  0  0
    1.9608   -2.3305    0.0848 H   0  0  0  0  0  0  0  0  0  0  0  0
    2.0035   -1.1015   -1.1640 H   0  0  0  0  0  0  0  0  0  0  0  0
    3.1390   -0.7345    2.5132 H   0  0  0  0  0  0  0  0  0  0  0  0
    1.5912   -0.0772    3.0325 H   0  0  0  0  0  0  0  0  0  0  0  0
    1.7207   -1.7588    2.4937 H   0  0  0  0  0  0  0  0  0  0  0  0
   -2.0226    1.0008   -1.7568 H   0  0  0  0  0  0  0  0  0  0  0  0
   -1.9572    1.7502    1.1758 H   0  0  0  0  0  0  0  0  0  0  0  0
   -2.5011    2.6651   -0.2263 H   0  0  0  0  0  0  0  0  0  0  0  0
   -4.6476    1.8981    0.1642 H   0  0  0  0  0  0  0  0  0  0  0  0
   -4.0389    0.9660    1.5394 H   0  0  0  0  0  0  0  0  0  0  0  0
   -4.6722   -0.8820    0.1874 H   0  0  0  0  0  0  0  0  0  0  0  0
   -5.5205    0.4598   -1.4226 H   0  0  0  0  0  0  0  0  0  0  0  0
  1  2  1  0
  2  3  1  0
  3  4  1  0
  4  5  1  0
  5  6  1  0
  6  7  1  0
  7  8  1  0
  8  9  1  0
  9 10  1  0
 10 11  1  0
 11 12  2  0
 11 13  1  0
 13 14  1  0
 14 15  1  0
 15 16  1  0
  6 17  1  0
 17 18  1  0
 18 19  1  0
 19 20  1  0
 20 21  1  0
 15  5  1  0
 15  9  1  0
 17  2  1  0
 20  2  1  0
  1 22  1  0
  1 23  1  0
  1 24  1  0
  3 25  1  0
  3 26  1  0
  4 27  1  0
  4 28  1  0
  5 29  1  0
  6 30  1  0
  7 31  1  0
  7 32  1  0
  8 33  1  0
  8 34  1  0
  9 35  1  0
 10 36  1  0
 10 37  1  0
 13 38  1  0
 13 39  1  0
 14 40  1  0
 14 41  1  0
 16 42  1  0
 16 43  1  0
 16 44  1  0
 17 45  1  0
 18 46  1  0
 18 47  1  0
 19 48  1  0
 19 49  1  0
 20 50  1  0
 21 51  1  0
M  END
>  <Energy>  (3) 
69.31297360515295

>  <Real charge>  (3) 
0

>  <Mult>  (3) 
1

$$$$
mol_921 255
     RDKit          3D

 51 54  0  0  0  0  0  0  0  0999 V2000
   -3.0668   -0.9300   -1.5160 C   0  0  0  0  0  0  0  0  0  0  0  0
   -2.7002    0.2150   -0.5560 C   0  0  0  0  0  0  0  0  0  0  0  0
   -1.8210    1.2573   -1.2852 C   0  0  0  0  0  0  0  0  0  0  0  0
   -0.3954    0.7701   -1.5476 C   0  0  0  0  0  0  0  0  0  0  0  0
    0.3155    0.3357   -0.2502 C   0  0  0  0  0  0  0  0  0  0  0  0
   -0.5289   -0.7406    0.4870 C   0  0  0  0  0  0  0  0  0  0  0  0
    0.1286   -1.1774    1.8054 C   0  0  0  0  0  0  0  0  0  0  0  0
    1.5779   -1.6129    1.6182 C   0  0  0  0  0  0  0  0  0  0  0  0
    2.3944   -0.5107    0.9359 C   0  0  0  0  0  0  0  0  0  0  0  0
    3.8793   -0.8817    0.8906 C   0  0  0  0  0  0  0  0  0  0  0  0
    4.6775    0.2314    0.2527 C   0  0  0  0  0  0  0  0  0  0  0  0
    5.7544    0.5983    0.7222 O   0  0  0  0  0  0  0  0  0  0  0  0
    4.1630    0.7820   -1.0558 C   0  0  0  0  0  0  0  0  0  0  0  0
    2.6648    1.0706   -0.9934 C   0  0  0  0  0  0  0  0  0  0  0  0
    1.8125   -0.1185   -0.4609 C   0  0  0  0  0  0  0  0  0  0  0  0
    1.9021   -1.2854   -1.4764 C   0  0  0  0  0  0  0  0  0  0  0  0
   -1.9962   -0.3112    0.7138 C   0  0  0  0  0  0  0  0  0  0  0  0
   -2.2110    0.8049    1.7522 C   0  0  0  0  0  0  0  0  0  0  0  0
   -3.4731    1.5631    1.3250 C   0  0  0  0  0  0  0  0  0  0  0  0
   -3.9571    0.8913    0.0391 C   0  0  0  0  0  0  0  0  0  0  0  0
   -4.9442   -0.0791    0.3814 O   0  0  0  0  0  0  0  0  0  0  0  0
   -3.6680   -0.5561   -2.3522 H   0  0  0  0  0  0  0  0  0  0  0  0
   -3.6465   -1.7126   -1.0145 H   0  0  0  0  0  0  0  0  0  0  0  0
   -2.1810   -1.4164   -1.9348 H   0  0  0  0  0  0  0  0  0  0  0  0
   -2.2881    1.5336   -2.2392 H   0  0  0  0  0  0  0  0  0  0  0  0
   -1.7575    2.1875   -0.7072 H   0  0  0  0  0  0  0  0  0  0  0  0
   -0.4219   -0.0514   -2.2701 H   0  0  0  0  0  0  0  0  0  0  0  0
    0.1529    1.5885   -2.0257 H   0  0  0  0  0  0  0  0  0  0  0  0
    0.3519    1.2235    0.3974 H   0  0  0  0  0  0  0  0  0  0  0  0
   -0.5713   -1.6297   -0.1554 H   0  0  0  0  0  0  0  0  0  0  0  0
   -0.4402   -2.0038    2.2483 H   0  0  0  0  0  0  0  0  0  0  0  0
    0.1058   -0.3558    2.5315 H   0  0  0  0  0  0  0  0  0  0  0  0
    2.0064   -1.8390    2.6024 H   0  0  0  0  0  0  0  0  0  0  0  0
    1.6190   -2.5439    1.0413 H   0  0  0  0  0  0  0  0  0  0  0  0
    2.3205    0.3820    1.5773 H   0  0  0  0  0  0  0  0  0  0  0  0
    4.2544   -1.0287    1.9104 H   0  0  0  0  0  0  0  0  0  0  0  0
    4.0619   -1.8077    0.3371 H   0  0  0  0  0  0  0  0  0  0  0  0
    4.7006    1.7095   -1.2821 H   0  0  0  0  0  0  0  0  0  0  0  0
    4.3988    0.0630   -1.8466 H   0  0  0  0  0  0  0  0  0  0  0  0
    2.3363    1.3655   -1.9964 H   0  0  0  0  0  0  0  0  0  0  0  0
    2.5072    1.9428   -0.3446 H   0  0  0  0  0  0  0  0  0  0  0  0
    1.6083   -0.9603   -2.4801 H   0  0  0  0  0  0  0  0  0  0  0  0
    2.9170   -1.6820   -1.5684 H   0  0  0  0  0  0  0  0  0  0  0  0
    1.2614   -2.1282   -1.2050 H   0  0  0  0  0  0  0  0  0  0  0  0
   -2.5422   -1.1939    1.0797 H   0  0  0  0  0  0  0  0  0  0  0  0
   -1.3681    1.5017    1.7990 H   0  0  0  0  0  0  0  0  0  0  0  0
   -2.3321    0.3820    2.7558 H   0  0  0  0  0  0  0  0  0  0  0  0
   -3.2154    2.6113    1.1354 H   0  0  0  0  0  0  0  0  0  0  0  0
   -4.2269    1.5439    2.1192 H   0  0  0  0  0  0  0  0  0  0  0  0
   -4.4154    1.6058   -0.6528 H   0  0  0  0  0  0  0  0  0  0  0  0
   -5.7038    0.3972    0.7582 H   0  0  0  0  0  0  0  0  0  0  0  0
  1  2  1  0
  2  3  1  0
  3  4  1  0
  4  5  1  0
  5  6  1  0
  6  7  1  0
  7  8  1  0
  8  9  1  0
  9 10  1  0
 10 11  1  0
 11 12  2  0
 11 13  1  0
 13 14  1  0
 14 15  1  0
 15 16  1  0
  6 17  1  0
 17 18  1  0
 18 19  1  0
 19 20  1  0
 20 21  1  0
 15  5  1  0
 15  9  1  0
 17  2  1  0
 20  2  1  0
  1 22  1  0
  1 23  1  0
  1 24  1  0
  3 25  1  0
  3 26  1  0
  4 27  1  0
  4 28  1  0
  5 29  1  0
  6 30  1  0
  7 31  1  0
  7 32  1  0
  8 33  1  0
  8 34  1  0
  9 35  1  0
 10 36  1  0
 10 37  1  0
 13 38  1  0
 13 39  1  0
 14 40  1  0
 14 41  1  0
 16 42  1  0
 16 43  1  0
 16 44  1  0
 17 45  1  0
 18 46  1  0
 18 47  1  0
 19 48  1  0
 19 49  1  0
 20 50  1  0
 21 51  1  0
M  END
>  <Energy>  (4) 
69.5766304428014

>  <Real charge>  (4) 
0

>  <Mult>  (4) 
1

$$$$
mol_921 107
     RDKit          3D

 51 54  0  0  0  0  0  0  0  0999 V2000
    2.6689    0.0089   -2.2659 C   0  0  0  0  0  0  0  0  0  0  0  0
    2.6426   -0.2816   -0.7556 C   0  0  0  0  0  0  0  0  0  0  0  0
    1.9796   -1.6529   -0.4913 C   0  0  0  0  0  0  0  0  0  0  0  0
    0.4664   -1.6471   -0.7126 C   0  0  0  0  0  0  0  0  0  0  0  0
   -0.2460   -0.5761    0.1413 C   0  0  0  0  0  0  0  0  0  0  0  0
    0.3797    0.8160   -0.1296 C   0  0  0  0  0  0  0  0  0  0  0  0
   -0.2704    1.8919    0.7459 C   0  0  0  0  0  0  0  0  0  0  0  0
   -1.7761    1.9384    0.5440 C   0  0  0  0  0  0  0  0  0  0  0  0
   -2.4358    0.5796    0.8417 C   0  0  0  0  0  0  0  0  0  0  0  0
   -3.9577    0.7121    0.6740 C   0  0  0  0  0  0  0  0  0  0  0  0
   -4.3531    0.7509   -0.7832 C   0  0  0  0  0  0  0  0  0  0  0  0
   -5.1813    1.5579   -1.2035 O   0  0  0  0  0  0  0  0  0  0  0  0
   -3.7809   -0.3256   -1.6707 C   0  0  0  0  0  0  0  0  0  0  0  0
   -2.2712   -0.4489   -1.4859 C   0  0  0  0  0  0  0  0  0  0  0  0
   -1.8217   -0.5884   -0.0036 C   0  0  0  0  0  0  0  0  0  0  0  0
   -2.3479   -1.9395    0.5530 C   0  0  0  0  0  0  0  0  0  0  0  0
    1.9178    0.8374    0.0227 C   0  0  0  0  0  0  0  0  0  0  0  0
    2.4462    0.6984    1.4618 C   0  0  0  0  0  0  0  0  0  0  0  0
    3.8191    0.0251    1.3601 C   0  0  0  0  0  0  0  0  0  0  0  0
    4.0560   -0.2382   -0.1276 C   0  0  0  0  0  0  0  0  0  0  0  0
    4.8314    0.8459   -0.6331 O   0  0  0  0  0  0  0  0  0  0  0  0
    1.6699   -0.0247   -2.7105 H   0  0  0  0  0  0  0  0  0  0  0  0
    3.2910   -0.7249   -2.7902 H   0  0  0  0  0  0  0  0  0  0  0  0
    3.0730    1.0038   -2.4821 H   0  0  0  0  0  0  0  0  0  0  0  0
    2.4348   -2.4147   -1.1370 H   0  0  0  0  0  0  0  0  0  0  0  0
    2.1674   -1.9866    0.5367 H   0  0  0  0  0  0  0  0  0  0  0  0
    0.2592   -1.4941   -1.7762 H   0  0  0  0  0  0  0  0  0  0  0  0
    0.0933   -2.6455   -0.4633 H   0  0  0  0  0  0  0  0  0  0  0  0
   -0.0372   -0.8240    1.1920 H   0  0  0  0  0  0  0  0  0  0  0  0
    0.1721    1.0798   -1.1751 H   0  0  0  0  0  0  0  0  0  0  0  0
   -0.0615    1.7060    1.8063 H   0  0  0  0  0  0  0  0  0  0  0  0
    0.1538    2.8745    0.5066 H   0  0  0  0  0  0  0  0  0  0  0  0
   -2.1937    2.7041    1.2097 H   0  0  0  0  0  0  0  0  0  0  0  0
   -1.9966    2.2661   -0.4788 H   0  0  0  0  0  0  0  0  0  0  0  0
   -2.2484    0.3639    1.9037 H   0  0  0  0  0  0  0  0  0  0  0  0
   -4.3189    1.6250    1.1617 H   0  0  0  0  0  0  0  0  0  0  0  0
   -4.4842   -0.1253    1.1430 H   0  0  0  0  0  0  0  0  0  0  0  0
   -4.2913   -1.2668   -1.4432 H   0  0  0  0  0  0  0  0  0  0  0  0
   -4.0002   -0.0760   -2.7147 H   0  0  0  0  0  0  0  0  0  0  0  0
   -1.9345   -1.3125   -2.0710 H   0  0  0  0  0  0  0  0  0  0  0  0
   -1.8012    0.4303   -1.9405 H   0  0  0  0  0  0  0  0  0  0  0  0
   -1.9793   -2.1140    1.5702 H   0  0  0  0  0  0  0  0  0  0  0  0
   -2.0326   -2.7837   -0.0680 H   0  0  0  0  0  0  0  0  0  0  0  0
   -3.4395   -1.9834    0.5965 H   0  0  0  0  0  0  0  0  0  0  0  0
    2.2698    1.8110   -0.3510 H   0  0  0  0  0  0  0  0  0  0  0  0
    2.5282    1.6803    1.9411 H   0  0  0  0  0  0  0  0  0  0  0  0
    1.7905    0.0894    2.0923 H   0  0  0  0  0  0  0  0  0  0  0  0
    4.5977    0.6559    1.8022 H   0  0  0  0  0  0  0  0  0  0  0  0
    3.7982   -0.9184    1.9175 H   0  0  0  0  0  0  0  0  0  0  0  0
    4.6244   -1.1613   -0.2841 H   0  0  0  0  0  0  0  0  0  0  0  0
    5.1303    0.6017   -1.5254 H   0  0  0  0  0  0  0  0  0  0  0  0
  1  2  1  0
  2  3  1  0
  3  4  1  0
  4  5  1  0
  5  6  1  0
  6  7  1  0
  7  8  1  0
  8  9  1  0
  9 10  1  0
 10 11  1  0
 11 12  2  0
 11 13  1  0
 13 14  1  0
 14 15  1  0
 15 16  1  0
  6 17  1  0
 17 18  1  0
 18 19  1  0
 19 20  1  0
 20 21  1  0
 15  5  1  0
 15  9  1  0
 17  2  1  0
 20  2  1  0
  1 22  1  0
  1 23  1  0
  1 24  1  0
  3 25  1  0
  3 26  1  0
  4 27  1  0
  4 28  1  0
  5 29  1  0
  6 30  1  0
  7 31  1  0
  7 32  1  0
  8 33  1  0
  8 34  1  0
  9 35  1  0
 10 36  1  0
 10 37  1  0
 13 38  1  0
 13 39  1  0
 14 40  1  0
 14 41  1  0
 16 42  1  0
 16 43  1  0
 16 44  1  0
 17 45  1  0
 18 46  1  0
 18 47  1  0
 19 48  1  0
 19 49  1  0
 20 50  1  0
 21 51  1  0
M  END
>  <Energy>  (5) 
69.63042250558907

>  <Real charge>  (5) 
0

>  <Mult>  (5) 
1

$$$$
mol_921 251
     RDKit          3D

 51 54  0  0  0  0  0  0  0  0999 V2000
    2.6666   -2.1504    0.3375 C   0  0  0  0  0  0  0  0  0  0  0  0
    2.6105   -0.6203    0.4763 C   0  0  0  0  0  0  0  0  0  0  0  0
    1.8370   -0.2359    1.7567 C   0  0  0  0  0  0  0  0  0  0  0  0
    0.3284   -0.4548    1.6350 C   0  0  0  0  0  0  0  0  0  0  0  0
   -0.2782    0.3112    0.4397 C   0  0  0  0  0  0  0  0  0  0  0  0
    0.4588   -0.0833   -0.8654 C   0  0  0  0  0  0  0  0  0  0  0  0
   -0.0843    0.7019   -2.0632 C   0  0  0  0  0  0  0  0  0  0  0  0
   -1.5834    0.5078   -2.2216 C   0  0  0  0  0  0  0  0  0  0  0  0
   -2.3517    0.9259   -0.9546 C   0  0  0  0  0  0  0  0  0  0  0  0
   -3.8592    0.7579   -1.2023 C   0  0  0  0  0  0  0  0  0  0  0  0
   -4.2695   -0.6948   -1.1516 C   0  0  0  0  0  0  0  0  0  0  0  0
   -5.0279   -1.1783   -1.9911 O   0  0  0  0  0  0  0  0  0  0  0  0
   -3.8056   -1.4893    0.0430 C   0  0  0  0  0  0  0  0  0  0  0  0
   -2.3092   -1.3056    0.2796 C   0  0  0  0  0  0  0  0  0  0  0  0
   -1.8512    0.1799    0.3295 C   0  0  0  0  0  0  0  0  0  0  0  0
   -2.4815    0.8554    1.5780 C   0  0  0  0  0  0  0  0  0  0  0  0
    1.9949    0.0523   -0.7683 C   0  0  0  0  0  0  0  0  0  0  0  0
    2.5376    1.4940   -0.7173 C   0  0  0  0  0  0  0  0  0  0  0  0
    3.8647    1.4268    0.0423 C   0  0  0  0  0  0  0  0  0  0  0  0
    4.0400   -0.0363    0.4462 C   0  0  0  0  0  0  0  0  0  0  0  0
    4.7366   -0.1741    1.6706 O   0  0  0  0  0  0  0  0  0  0  0  0
    1.6700   -2.5943    0.2560 H   0  0  0  0  0  0  0  0  0  0  0  0
    3.1658   -2.6038    1.2010 H   0  0  0  0  0  0  0  0  0  0  0  0
    3.2246   -2.4472   -0.5579 H   0  0  0  0  0  0  0  0  0  0  0  0
    2.2124   -0.8124    2.6116 H   0  0  0  0  0  0  0  0  0  0  0  0
    2.0053    0.8186    2.0088 H   0  0  0  0  0  0  0  0  0  0  0  0
   -0.1291   -0.1254    2.5732 H   0  0  0  0  0  0  0  0  0  0  0  0
    0.1272   -1.5273    1.5486 H   0  0  0  0  0  0  0  0  0  0  0  0
   -0.0748    1.3777    0.6146 H   0  0  0  0  0  0  0  0  0  0  0  0
    0.2580   -1.1460   -1.0558 H   0  0  0  0  0  0  0  0  0  0  0  0
    0.1236    1.7726   -1.9499 H   0  0  0  0  0  0  0  0  0  0  0  0
    0.4183    0.3764   -2.9820 H   0  0  0  0  0  0  0  0  0  0  0  0
   -1.9248    1.1085   -3.0740 H   0  0  0  0  0  0  0  0  0  0  0  0
   -1.7903   -0.5377   -2.4789 H   0  0  0  0  0  0  0  0  0  0  0  0
   -2.1681    2.0012   -0.8148 H   0  0  0  0  0  0  0  0  0  0  0  0
   -4.1349    1.1682   -2.1808 H   0  0  0  0  0  0  0  0  0  0  0  0
   -4.4483    1.3001   -0.4558 H   0  0  0  0  0  0  0  0  0  0  0  0
   -4.0185   -2.5495   -0.1335 H   0  0  0  0  0  0  0  0  0  0  0  0
   -4.3910   -1.1766    0.9134 H   0  0  0  0  0  0  0  0  0  0  0  0
   -2.0555   -1.8160    1.2159 H   0  0  0  0  0  0  0  0  0  0  0  0
   -1.7730   -1.8381   -0.5138 H   0  0  0  0  0  0  0  0  0  0  0  0
   -3.5721    0.9108    1.5243 H   0  0  0  0  0  0  0  0  0  0  0  0
   -2.1137    1.8809    1.6958 H   0  0  0  0  0  0  0  0  0  0  0  0
   -2.2483    0.3074    2.4962 H   0  0  0  0  0  0  0  0  0  0  0  0
    2.4236   -0.4155   -1.6678 H   0  0  0  0  0  0  0  0  0  0  0  0
    1.8576    2.1754   -0.1961 H   0  0  0  0  0  0  0  0  0  0  0  0
    2.6828    1.8939   -1.7269 H   0  0  0  0  0  0  0  0  0  0  0  0
    4.6994    1.7562   -0.5863 H   0  0  0  0  0  0  0  0  0  0  0  0
    3.8470    2.0941    0.9116 H   0  0  0  0  0  0  0  0  0  0  0  0
    4.6371   -0.5411   -0.3239 H   0  0  0  0  0  0  0  0  0  0  0  0
    4.3159    0.3986    2.3332 H   0  0  0  0  0  0  0  0  0  0  0  0
  1  2  1  0
  2  3  1  0
  3  4  1  0
  4  5  1  0
  5  6  1  0
  6  7  1  0
  7  8  1  0
  8  9  1  0
  9 10  1  0
 10 11  1  0
 11 12  2  0
 11 13  1  0
 13 14  1  0
 14 15  1  0
 15 16  1  0
  6 17  1  0
 17 18  1  0
 18 19  1  0
 19 20  1  0
 20 21  1  0
 15  5  1  0
 15  9  1  0
 17  2  1  0
 20  2  1  0
  1 22  1  0
  1 23  1  0
  1 24  1  0
  3 25  1  0
  3 26  1  0
  4 27  1  0
  4 28  1  0
  5 29  1  0
  6 30  1  0
  7 31  1  0
  7 32  1  0
  8 33  1  0
  8 34  1  0
  9 35  1  0
 10 36  1  0
 10 37  1  0
 13 38  1  0
 13 39  1  0
 14 40  1  0
 14 41  1  0
 16 42  1  0
 16 43  1  0
 16 44  1  0
 17 45  1  0
 18 46  1  0
 18 47  1  0
 19 48  1  0
 19 49  1  0
 20 50  1  0
 21 51  1  0
M  END
>  <Energy>  (6) 
69.63935532342306

>  <Real charge>  (6) 
0

>  <Mult>  (6) 
1

$$$$
