mol_726 191
     RDKit          3D

 34 36  0  0  0  0  0  0  0  0999 V2000
   -0.1870    0.9695    2.1011 O   0  0  0  0  0  0  0  0  0  0  0  0
   -0.0567    0.4732    0.7534 C   0  0  0  0  0  0  0  0  0  0  0  0
   -1.2231   -0.5166    0.5109 C   0  0  0  0  0  0  0  0  0  0  0  0
   -2.4996   -0.2462    1.0483 C   0  0  0  0  0  0  0  0  0  0  0  0
   -3.5757   -1.1094    0.8252 C   0  0  0  0  0  0  0  0  0  0  0  0
   -3.3968   -2.2514    0.0515 C   0  0  0  0  0  0  0  0  0  0  0  0
   -4.7197   -3.3151   -0.2247 Cl  0  0  0  0  0  0  0  0  0  0  0  0
   -2.1537   -2.5328   -0.5075 C   0  0  0  0  0  0  0  0  0  0  0  0
   -1.0760   -1.6692   -0.2863 C   0  0  0  0  0  0  0  0  0  0  0  0
   -0.1943    1.7158   -0.1212 C   0  0  0  0  0  0  0  0  0  0  0  0
   -0.7305    1.7071   -1.3990 C   0  0  0  0  0  0  0  0  0  0  0  0
   -0.8112    2.7905   -2.2006 N   0  0  0  0  0  0  0  0  0  0  0  0
   -0.3340    3.9324   -1.6871 C   0  0  0  0  0  0  0  0  0  0  0  0
    0.2165    4.0766   -0.4753 N   0  0  0  0  0  0  0  0  0  0  0  0
    0.2711    2.9586    0.2804 C   0  0  0  0  0  0  0  0  0  0  0  0
    1.3407   -0.1919    0.6865 C   0  0  0  0  0  0  0  0  0  0  0  0
    2.2473    0.1220   -0.3535 C   0  0  0  0  0  0  0  0  0  0  0  0
    3.5076   -0.4785   -0.4408 C   0  0  0  0  0  0  0  0  0  0  0  0
    3.9010   -1.4170    0.5031 C   0  0  0  0  0  0  0  0  0  0  0  0
    3.0312   -1.7590    1.5331 C   0  0  0  0  0  0  0  0  0  0  0  0
    1.7666   -1.1605    1.6262 C   0  0  0  0  0  0  0  0  0  0  0  0
    0.7708   -1.7041    2.9376 Cl  0  0  0  0  0  0  0  0  0  0  0  0
   -0.3584    0.1934    2.6652 H   0  0  0  0  0  0  0  0  0  0  0  0
   -2.6664    0.6519    1.6434 H   0  0  0  0  0  0  0  0  0  0  0  0
   -4.5482   -0.8805    1.2537 H   0  0  0  0  0  0  0  0  0  0  0  0
   -2.0155   -3.4211   -1.1190 H   0  0  0  0  0  0  0  0  0  0  0  0
   -0.1224   -1.9158   -0.7499 H   0  0  0  0  0  0  0  0  0  0  0  0
   -1.1213    0.8009   -1.8542 H   0  0  0  0  0  0  0  0  0  0  0  0
   -0.3958    4.8178   -2.3097 H   0  0  0  0  0  0  0  0  0  0  0  0
    0.7278    3.1006    1.2578 H   0  0  0  0  0  0  0  0  0  0  0  0
    1.9993    0.8479   -1.1260 H   0  0  0  0  0  0  0  0  0  0  0  0
    4.1819   -0.2063   -1.2504 H   0  0  0  0  0  0  0  0  0  0  0  0
    4.8810   -1.8828    0.4371 H   0  0  0  0  0  0  0  0  0  0  0  0
    3.3437   -2.5000    2.2659 H   0  0  0  0  0  0  0  0  0  0  0  0
  1  2  1  0
  2  3  1  0
  3  4  2  0
  4  5  1  0
  5  6  2  0
  6  7  1  0
  6  8  1  0
  8  9  2  0
  2 10  1  0
 10 11  2  0
 11 12  1  0
 12 13  2  0
 13 14  1  0
 14 15  2  0
  2 16  1  0
 16 17  2  0
 17 18  1  0
 18 19  2  0
 19 20  1  0
 20 21  2  0
 21 22  1  0
  9  3  1  0
 15 10  1  0
 21 16  1  0
  1 23  1  0
  4 24  1  0
  5 25  1  0
  8 26  1  0
  9 27  1  0
 11 28  1  0
 13 29  1  0
 15 30  1  0
 17 31  1  0
 18 32  1  0
 19 33  1  0
 20 34  1  0
M  END
>  <Energy>  (1) 
45.02789213629054

>  <Real charge>  (1) 
0

>  <Mult>  (1) 
1

$$$$
