mol_991 159
     RDKit          3D

 39 40  0  0  0  0  0  0  0  0999 V2000
    5.5657    0.5400    0.1463 C   0  0  0  0  0  0  0  0  0  0  0  0
    4.2140   -0.1555    0.1091 C   0  0  0  0  0  0  0  0  0  0  0  0
    3.6861   -0.2744   -1.3222 C   0  0  0  0  0  0  0  0  0  0  0  0
    2.3459   -1.0014   -1.3887 C   0  0  0  0  0  0  0  0  0  0  0  0
    1.2788   -0.2341   -0.7765 N   0  0  0  0  0  0  0  0  0  0  0  0
    0.0953   -0.8549   -0.4421 C   0  0  0  0  0  0  0  0  0  0  0  0
   -0.1548   -2.0473   -0.5657 O   0  0  0  0  0  0  0  0  0  0  0  0
   -0.9092    0.0308    0.0019 N   0  0  0  0  0  0  0  0  0  0  0  0
   -2.2729   -0.2814    0.0229 C   0  0  0  0  0  0  0  0  0  0  0  0
   -2.7384   -1.5354   -0.3004 N   0  0  0  0  0  0  0  0  0  0  0  0
   -4.0563   -1.8781   -0.3108 C   0  0  0  0  0  0  0  0  0  0  0  0
   -5.0303   -1.1818   -0.0712 O   0  0  0  0  0  0  0  0  0  0  0  0
   -4.1415   -3.1959   -0.6520 O   0  0  0  0  0  0  0  0  0  0  0  0
   -5.4774   -3.6990   -0.7009 C   0  0  0  0  0  0  0  0  0  0  0  0
   -2.9965    0.7654    0.3416 N   0  0  0  0  0  0  0  0  0  0  0  0
   -2.1153    1.7585    0.6469 C   0  0  0  0  0  0  0  0  0  0  0  0
   -2.3860    3.0612    1.0934 C   0  0  0  0  0  0  0  0  0  0  0  0
   -1.3193    3.9048    1.4144 C   0  0  0  0  0  0  0  0  0  0  0  0
   -0.0062    3.4534    1.3083 C   0  0  0  0  0  0  0  0  0  0  0  0
    0.2823    2.1594    0.8572 C   0  0  0  0  0  0  0  0  0  0  0  0
   -0.7977    1.3327    0.4957 C   0  0  0  0  0  0  0  0  0  0  0  0
    6.3092   -0.0154   -0.4343 H   0  0  0  0  0  0  0  0  0  0  0  0
    5.9259    0.6135    1.1772 H   0  0  0  0  0  0  0  0  0  0  0  0
    5.4966    1.5532   -0.2625 H   0  0  0  0  0  0  0  0  0  0  0  0
    4.3109   -1.1530    0.5533 H   0  0  0  0  0  0  0  0  0  0  0  0
    3.5078    0.4080    0.7289 H   0  0  0  0  0  0  0  0  0  0  0  0
    3.5895    0.7252   -1.7638 H   0  0  0  0  0  0  0  0  0  0  0  0
    4.4138   -0.8263   -1.9293 H   0  0  0  0  0  0  0  0  0  0  0  0
    2.0628   -1.1640   -2.4348 H   0  0  0  0  0  0  0  0  0  0  0  0
    2.4105   -1.9837   -0.9072 H   0  0  0  0  0  0  0  0  0  0  0  0
    1.2328    0.7467   -1.0247 H   0  0  0  0  0  0  0  0  0  0  0  0
   -2.0691   -2.2671   -0.5197 H   0  0  0  0  0  0  0  0  0  0  0  0
   -5.9535   -3.6216    0.2816 H   0  0  0  0  0  0  0  0  0  0  0  0
   -5.4305   -4.7555   -0.9790 H   0  0  0  0  0  0  0  0  0  0  0  0
   -6.0604   -3.1678   -1.4597 H   0  0  0  0  0  0  0  0  0  0  0  0
   -3.4143    3.3904    1.2026 H   0  0  0  0  0  0  0  0  0  0  0  0
   -1.5216    4.9121    1.7708 H   0  0  0  0  0  0  0  0  0  0  0  0
    0.8099    4.1154    1.5931 H   0  0  0  0  0  0  0  0  0  0  0  0
    1.3133    1.8229    0.8274 H   0  0  0  0  0  0  0  0  0  0  0  0
  1  2  1  0
  2  3  1  0
  3  4  1  0
  4  5  1  0
  5  6  1  0
  6  7  2  0
  6  8  1  0
  8  9  1  0
  9 10  1  0
 10 11  1  0
 11 12  2  0
 11 13  1  0
 13 14  1  0
  9 15  2  0
 15 16  1  0
 16 17  2  0
 17 18  1  0
 18 19  2  0
 19 20  1  0
 20 21  2  0
 21  8  1  0
 21 16  1  0
  1 22  1  0
  1 23  1  0
  1 24  1  0
  2 25  1  0
  2 26  1  0
  3 27  1  0
  3 28  1  0
  4 29  1  0
  4 30  1  0
  5 31  1  0
 10 32  1  0
 14 33  1  0
 14 34  1  0
 14 35  1  0
 17 36  1  0
 18 37  1  0
 19 38  1  0
 20 39  1  0
M  END
>  <Energy>  (1) 
-33.933234464674456

>  <Real charge>  (1) 
0

>  <Mult>  (1) 
1

$$$$
mol_991 470
     RDKit          3D

 39 40  0  0  0  0  0  0  0  0999 V2000
    4.1580   -1.2905    2.1818 C   0  0  0  0  0  0  0  0  0  0  0  0
    3.6637   -0.7635    0.8436 C   0  0  0  0  0  0  0  0  0  0  0  0
    2.9777   -1.8628    0.0296 C   0  0  0  0  0  0  0  0  0  0  0  0
    2.5230   -1.3770   -1.3472 C   0  0  0  0  0  0  0  0  0  0  0  0
    1.4898   -0.3628   -1.2739 N   0  0  0  0  0  0  0  0  0  0  0  0
    0.1775   -0.7090   -1.0428 C   0  0  0  0  0  0  0  0  0  0  0  0
   -0.2554   -1.8456   -0.8999 O   0  0  0  0  0  0  0  0  0  0  0  0
   -0.6850    0.3950   -0.8808 N   0  0  0  0  0  0  0  0  0  0  0  0
   -1.9256    0.3289   -0.2378 C   0  0  0  0  0  0  0  0  0  0  0  0
   -2.4555   -0.8625    0.2020 N   0  0  0  0  0  0  0  0  0  0  0  0
   -3.6487   -0.9712    0.8491 C   0  0  0  0  0  0  0  0  0  0  0  0
   -4.4298   -0.0887    1.1683 O   0  0  0  0  0  0  0  0  0  0  0  0
   -3.8619   -2.2927    1.1107 O   0  0  0  0  0  0  0  0  0  0  0  0
   -5.0889   -2.5606    1.7910 C   0  0  0  0  0  0  0  0  0  0  0  0
   -2.4504    1.5224   -0.0918 N   0  0  0  0  0  0  0  0  0  0  0  0
   -1.6193    2.3852   -0.7407 C   0  0  0  0  0  0  0  0  0  0  0  0
   -1.7623    3.7698   -0.9193 C   0  0  0  0  0  0  0  0  0  0  0  0
   -0.8178    4.4570   -1.6862 C   0  0  0  0  0  0  0  0  0  0  0  0
    0.2410    3.7742   -2.2797 C   0  0  0  0  0  0  0  0  0  0  0  0
    0.4035    2.3941   -2.1054 C   0  0  0  0  0  0  0  0  0  0  0  0
   -0.5276    1.7199   -1.2936 C   0  0  0  0  0  0  0  0  0  0  0  0
    4.6445   -0.4901    2.7480 H   0  0  0  0  0  0  0  0  0  0  0  0
    4.8845   -2.0973    2.0418 H   0  0  0  0  0  0  0  0  0  0  0  0
    3.3277   -1.6755    2.7824 H   0  0  0  0  0  0  0  0  0  0  0  0
    4.5128   -0.3585    0.2810 H   0  0  0  0  0  0  0  0  0  0  0  0
    2.9688    0.0643    1.0245 H   0  0  0  0  0  0  0  0  0  0  0  0
    3.6773   -2.6959   -0.1107 H   0  0  0  0  0  0  0  0  0  0  0  0
    2.1219   -2.2547    0.5922 H   0  0  0  0  0  0  0  0  0  0  0  0
    3.3627   -0.9467   -1.9027 H   0  0  0  0  0  0  0  0  0  0  0  0
    2.1354   -2.2252   -1.9228 H   0  0  0  0  0  0  0  0  0  0  0  0
    1.7923    0.5773   -1.0534 H   0  0  0  0  0  0  0  0  0  0  0  0
   -1.9514   -1.7239    0.0146 H   0  0  0  0  0  0  0  0  0  0  0  0
   -5.1013   -2.0688    2.7688 H   0  0  0  0  0  0  0  0  0  0  0  0
   -5.9424   -2.2430    1.1838 H   0  0  0  0  0  0  0  0  0  0  0  0
   -5.1598   -3.6406    1.9473 H   0  0  0  0  0  0  0  0  0  0  0  0
   -2.6105    4.2849   -0.4799 H   0  0  0  0  0  0  0  0  0  0  0  0
   -0.9279    5.5283   -1.8377 H   0  0  0  0  0  0  0  0  0  0  0  0
    0.9475    4.3224   -2.9007 H   0  0  0  0  0  0  0  0  0  0  0  0
    1.2119    1.8833   -2.6185 H   0  0  0  0  0  0  0  0  0  0  0  0
  1  2  1  0
  2  3  1  0
  3  4  1  0
  4  5  1  0
  5  6  1  0
  6  7  2  0
  6  8  1  0
  8  9  1  0
  9 10  1  0
 10 11  1  0
 11 12  2  0
 11 13  1  0
 13 14  1  0
  9 15  2  0
 15 16  1  0
 16 17  2  0
 17 18  1  0
 18 19  2  0
 19 20  1  0
 20 21  2  0
 21  8  1  0
 21 16  1  0
  1 22  1  0
  1 23  1  0
  1 24  1  0
  2 25  1  0
  2 26  1  0
  3 27  1  0
  3 28  1  0
  4 29  1  0
  4 30  1  0
  5 31  1  0
 10 32  1  0
 14 33  1  0
 14 34  1  0
 14 35  1  0
 17 36  1  0
 18 37  1  0
 19 38  1  0
 20 39  1  0
M  END
>  <Energy>  (2) 
-33.870812052252134

>  <Real charge>  (2) 
0

>  <Mult>  (2) 
1

$$$$
mol_991 224
     RDKit          3D

 39 40  0  0  0  0  0  0  0  0999 V2000
    5.0329   -0.8695    1.0337 C   0  0  0  0  0  0  0  0  0  0  0  0
    3.8748   -1.2341    0.1181 C   0  0  0  0  0  0  0  0  0  0  0  0
    3.5253   -0.0818   -0.8264 C   0  0  0  0  0  0  0  0  0  0  0  0
    2.3989   -0.4416   -1.7952 C   0  0  0  0  0  0  0  0  0  0  0  0
    1.1397   -0.6958   -1.1232 N   0  0  0  0  0  0  0  0  0  0  0  0
    0.3542    0.3431   -0.6777 C   0  0  0  0  0  0  0  0  0  0  0  0
    0.6011    1.5369   -0.7930 O   0  0  0  0  0  0  0  0  0  0  0  0
   -0.8725   -0.0681   -0.1166 N   0  0  0  0  0  0  0  0  0  0  0  0
   -1.9881    0.7650    0.0189 C   0  0  0  0  0  0  0  0  0  0  0  0
   -1.9404    2.1034   -0.2977 N   0  0  0  0  0  0  0  0  0  0  0  0
   -3.0053    2.9465   -0.1990 C   0  0  0  0  0  0  0  0  0  0  0  0
   -4.1494    2.6975    0.1471 O   0  0  0  0  0  0  0  0  0  0  0  0
   -2.5869    4.1910   -0.5682 O   0  0  0  0  0  0  0  0  0  0  0  0
   -3.6074    5.1887   -0.5109 C   0  0  0  0  0  0  0  0  0  0  0  0
   -3.0367    0.0932    0.4315 N   0  0  0  0  0  0  0  0  0  0  0  0
   -2.6008   -1.1717    0.6890 C   0  0  0  0  0  0  0  0  0  0  0  0
   -3.3253   -2.2596    1.1999 C   0  0  0  0  0  0  0  0  0  0  0  0
   -2.6580   -3.4603    1.4558 C   0  0  0  0  0  0  0  0  0  0  0  0
   -1.2893   -3.5703    1.2232 C   0  0  0  0  0  0  0  0  0  0  0  0
   -0.5523   -2.4976    0.7059 C   0  0  0  0  0  0  0  0  0  0  0  0
   -1.2430   -1.3078    0.4094 C   0  0  0  0  0  0  0  0  0  0  0  0
    5.2668   -1.7056    1.7002 H   0  0  0  0  0  0  0  0  0  0  0  0
    4.7853   -0.0009    1.6523 H   0  0  0  0  0  0  0  0  0  0  0  0
    5.9320   -0.6348    0.4551 H   0  0  0  0  0  0  0  0  0  0  0  0
    3.0066   -1.4969    0.7328 H   0  0  0  0  0  0  0  0  0  0  0  0
    4.1429   -2.1238   -0.4635 H   0  0  0  0  0  0  0  0  0  0  0  0
    4.4135    0.1869   -1.4111 H   0  0  0  0  0  0  0  0  0  0  0  0
    3.2498    0.8021   -0.2388 H   0  0  0  0  0  0  0  0  0  0  0  0
    2.6552   -1.3431   -2.3621 H   0  0  0  0  0  0  0  0  0  0  0  0
    2.2511    0.3753   -2.5104 H   0  0  0  0  0  0  0  0  0  0  0  0
    0.7103   -1.5980   -1.2841 H   0  0  0  0  0  0  0  0  0  0  0  0
   -1.0576    2.5071   -0.5959 H   0  0  0  0  0  0  0  0  0  0  0  0
   -3.9802    5.2989    0.5123 H   0  0  0  0  0  0  0  0  0  0  0  0
   -3.1675    6.1403   -0.8220 H   0  0  0  0  0  0  0  0  0  0  0  0
   -4.4229    4.9441   -1.1988 H   0  0  0  0  0  0  0  0  0  0  0  0
   -4.3847   -2.1508    1.4089 H   0  0  0  0  0  0  0  0  0  0  0  0
   -3.2107   -4.3043    1.8617 H   0  0  0  0  0  0  0  0  0  0  0  0
   -0.7817   -4.5039    1.4599 H   0  0  0  0  0  0  0  0  0  0  0  0
    0.5204   -2.5998    0.5788 H   0  0  0  0  0  0  0  0  0  0  0  0
  1  2  1  0
  2  3  1  0
  3  4  1  0
  4  5  1  0
  5  6  1  0
  6  7  2  0
  6  8  1  0
  8  9  1  0
  9 10  1  0
 10 11  1  0
 11 12  2  0
 11 13  1  0
 13 14  1  0
  9 15  2  0
 15 16  1  0
 16 17  2  0
 17 18  1  0
 18 19  2  0
 19 20  1  0
 20 21  2  0
 21  8  1  0
 21 16  1  0
  1 22  1  0
  1 23  1  0
  1 24  1  0
  2 25  1  0
  2 26  1  0
  3 27  1  0
  3 28  1  0
  4 29  1  0
  4 30  1  0
  5 31  1  0
 10 32  1  0
 14 33  1  0
 14 34  1  0
 14 35  1  0
 17 36  1  0
 18 37  1  0
 19 38  1  0
 20 39  1  0
M  END
>  <Energy>  (3) 
-33.60452720808857

>  <Real charge>  (3) 
0

>  <Mult>  (3) 
1

$$$$
mol_991 391
     RDKit          3D

 39 40  0  0  0  0  0  0  0  0999 V2000
    5.6375    0.0752   -0.1962 C   0  0  0  0  0  0  0  0  0  0  0  0
    4.2101   -0.4006   -0.4189 C   0  0  0  0  0  0  0  0  0  0  0  0
    3.6595   -1.1107    0.8200 C   0  0  0  0  0  0  0  0  0  0  0  0
    2.2529   -1.6666    0.6108 C   0  0  0  0  0  0  0  0  0  0  0  0
    1.2568   -0.6195    0.4943 N   0  0  0  0  0  0  0  0  0  0  0  0
   -0.0769   -0.9230    0.6616 C   0  0  0  0  0  0  0  0  0  0  0  0
   -0.5379   -2.0187    0.9552 O   0  0  0  0  0  0  0  0  0  0  0  0
   -0.9459    0.1511    0.3757 N   0  0  0  0  0  0  0  0  0  0  0  0
   -2.3080    0.0016    0.0939 C   0  0  0  0  0  0  0  0  0  0  0  0
   -2.9387   -1.2189    0.1734 N   0  0  0  0  0  0  0  0  0  0  0  0
   -4.2566   -1.4136   -0.1090 C   0  0  0  0  0  0  0  0  0  0  0  0
   -5.0870   -0.6016   -0.4857 O   0  0  0  0  0  0  0  0  0  0  0  0
   -4.5369   -2.7321    0.0991 O   0  0  0  0  0  0  0  0  0  0  0  0
   -5.8968   -3.0854   -0.1577 C   0  0  0  0  0  0  0  0  0  0  0  0
   -2.8454    1.1395   -0.2770 N   0  0  0  0  0  0  0  0  0  0  0  0
   -1.8725    2.0831   -0.1380 C   0  0  0  0  0  0  0  0  0  0  0  0
   -1.9570    3.4662   -0.3607 C   0  0  0  0  0  0  0  0  0  0  0  0
   -0.8443    4.2671   -0.0907 C   0  0  0  0  0  0  0  0  0  0  0  0
    0.3271    3.7027    0.4083 C   0  0  0  0  0  0  0  0  0  0  0  0
    0.4315    2.3238    0.6294 C   0  0  0  0  0  0  0  0  0  0  0  0
   -0.6807    1.5212    0.3134 C   0  0  0  0  0  0  0  0  0  0  0  0
    6.0127    0.5799   -1.0921 H   0  0  0  0  0  0  0  0  0  0  0  0
    6.3023   -0.7664    0.0228 H   0  0  0  0  0  0  0  0  0  0  0  0
    5.6895    0.7813    0.6386 H   0  0  0  0  0  0  0  0  0  0  0  0
    3.5870    0.4638   -0.6728 H   0  0  0  0  0  0  0  0  0  0  0  0
    4.1884   -1.0809   -1.2781 H   0  0  0  0  0  0  0  0  0  0  0  0
    4.3253   -1.9436    1.0771 H   0  0  0  0  0  0  0  0  0  0  0  0
    3.6623   -0.4204    1.6725 H   0  0  0  0  0  0  0  0  0  0  0  0
    1.9835   -2.3061    1.4593 H   0  0  0  0  0  0  0  0  0  0  0  0
    2.2014   -2.2814   -0.2948 H   0  0  0  0  0  0  0  0  0  0  0  0
    1.4741    0.1435   -0.1346 H   0  0  0  0  0  0  0  0  0  0  0  0
   -2.4092   -2.0268    0.4865 H   0  0  0  0  0  0  0  0  0  0  0  0
   -6.5691   -2.5363    0.5090 H   0  0  0  0  0  0  0  0  0  0  0  0
   -6.0114   -4.1545    0.0411 H   0  0  0  0  0  0  0  0  0  0  0  0
   -6.1504   -2.9001   -1.2062 H   0  0  0  0  0  0  0  0  0  0  0  0
   -2.8857    3.8983   -0.7193 H   0  0  0  0  0  0  0  0  0  0  0  0
   -0.9056    5.3409   -0.2513 H   0  0  0  0  0  0  0  0  0  0  0  0
    1.1724    4.3478    0.6418 H   0  0  0  0  0  0  0  0  0  0  0  0
    1.3421    1.9200    1.0600 H   0  0  0  0  0  0  0  0  0  0  0  0
  1  2  1  0
  2  3  1  0
  3  4  1  0
  4  5  1  0
  5  6  1  0
  6  7  2  0
  6  8  1  0
  8  9  1  0
  9 10  1  0
 10 11  1  0
 11 12  2  0
 11 13  1  0
 13 14  1  0
  9 15  2  0
 15 16  1  0
 16 17  2  0
 17 18  1  0
 18 19  2  0
 19 20  1  0
 20 21  2  0
 21  8  1  0
 21 16  1  0
  1 22  1  0
  1 23  1  0
  1 24  1  0
  2 25  1  0
  2 26  1  0
  3 27  1  0
  3 28  1  0
  4 29  1  0
  4 30  1  0
  5 31  1  0
 10 32  1  0
 14 33  1  0
 14 34  1  0
 14 35  1  0
 17 36  1  0
 18 37  1  0
 19 38  1  0
 20 39  1  0
M  END
>  <Energy>  (4) 
-33.58374016196513

>  <Real charge>  (4) 
0

>  <Mult>  (4) 
1

$$$$
mol_991 424
     RDKit          3D

 39 40  0  0  0  0  0  0  0  0999 V2000
    5.2591    1.2866    1.3429 C   0  0  0  0  0  0  0  0  0  0  0  0
    4.6748    0.7893    0.0304 C   0  0  0  0  0  0  0  0  0  0  0  0
    3.2464    0.2789    0.2113 C   0  0  0  0  0  0  0  0  0  0  0  0
    2.6646   -0.2212   -1.1093 C   0  0  0  0  0  0  0  0  0  0  0  0
    1.3204   -0.7375   -0.9409 N   0  0  0  0  0  0  0  0  0  0  0  0
    0.2391    0.1142   -0.9052 C   0  0  0  0  0  0  0  0  0  0  0  0
    0.2756    1.3329   -1.0205 O   0  0  0  0  0  0  0  0  0  0  0  0
   -0.9851   -0.5268   -0.6232 N   0  0  0  0  0  0  0  0  0  0  0  0
   -2.1158    0.1319   -0.1287 C   0  0  0  0  0  0  0  0  0  0  0  0
   -2.1531    1.4989    0.0259 N   0  0  0  0  0  0  0  0  0  0  0  0
   -3.2238    2.1793    0.5208 C   0  0  0  0  0  0  0  0  0  0  0  0
   -4.2907    1.7411    0.9217 O   0  0  0  0  0  0  0  0  0  0  0  0
   -2.9156    3.5078    0.5076 O   0  0  0  0  0  0  0  0  0  0  0  0
   -3.9566    4.3516    1.0018 C   0  0  0  0  0  0  0  0  0  0  0  0
   -3.0631   -0.7193    0.1862 N   0  0  0  0  0  0  0  0  0  0  0  0
   -2.6176   -1.9460   -0.2051 C   0  0  0  0  0  0  0  0  0  0  0  0
   -3.2806   -3.1808   -0.1346 C   0  0  0  0  0  0  0  0  0  0  0  0
   -2.6605   -4.3160   -0.6630 C   0  0  0  0  0  0  0  0  0  0  0  0
   -1.4092   -4.2200   -1.2668 C   0  0  0  0  0  0  0  0  0  0  0  0
   -0.7298   -2.9974   -1.3387 C   0  0  0  0  0  0  0  0  0  0  0  0
   -1.3436   -1.8694   -0.7630 C   0  0  0  0  0  0  0  0  0  0  0  0
    6.2813    1.6469    1.1904 H   0  0  0  0  0  0  0  0  0  0  0  0
    4.6652    2.1115    1.7492 H   0  0  0  0  0  0  0  0  0  0  0  0
    5.2890    0.4849    2.0877 H   0  0  0  0  0  0  0  0  0  0  0  0
    5.3095   -0.0123   -0.3650 H   0  0  0  0  0  0  0  0  0  0  0  0
    4.6886    1.6053   -0.7015 H   0  0  0  0  0  0  0  0  0  0  0  0
    2.6165    1.0798    0.6176 H   0  0  0  0  0  0  0  0  0  0  0  0
    3.2327   -0.5338    0.9485 H   0  0  0  0  0  0  0  0  0  0  0  0
    3.2717   -1.0391   -1.5114 H   0  0  0  0  0  0  0  0  0  0  0  0
    2.6439    0.5871   -1.8490 H   0  0  0  0  0  0  0  0  0  0  0  0
    1.2361   -1.6510   -0.5136 H   0  0  0  0  0  0  0  0  0  0  0  0
   -1.3523    2.0492   -0.2694 H   0  0  0  0  0  0  0  0  0  0  0  0
   -4.1761    4.1182    2.0484 H   0  0  0  0  0  0  0  0  0  0  0  0
   -3.6083    5.3866    0.9449 H   0  0  0  0  0  0  0  0  0  0  0  0
   -4.8552    4.2554    0.3841 H   0  0  0  0  0  0  0  0  0  0  0  0
   -4.2700   -3.2365    0.3080 H   0  0  0  0  0  0  0  0  0  0  0  0
   -3.1727   -5.2745   -0.6214 H   0  0  0  0  0  0  0  0  0  0  0  0
   -0.9575   -5.1099   -1.7017 H   0  0  0  0  0  0  0  0  0  0  0  0
    0.2227   -2.9461   -1.8561 H   0  0  0  0  0  0  0  0  0  0  0  0
  1  2  1  0
  2  3  1  0
  3  4  1  0
  4  5  1  0
  5  6  1  0
  6  7  2  0
  6  8  1  0
  8  9  1  0
  9 10  1  0
 10 11  1  0
 11 12  2  0
 11 13  1  0
 13 14  1  0
  9 15  2  0
 15 16  1  0
 16 17  2  0
 17 18  1  0
 18 19  2  0
 19 20  1  0
 20 21  2  0
 21  8  1  0
 21 16  1  0
  1 22  1  0
  1 23  1  0
  1 24  1  0
  2 25  1  0
  2 26  1  0
  3 27  1  0
  3 28  1  0
  4 29  1  0
  4 30  1  0
  5 31  1  0
 10 32  1  0
 14 33  1  0
 14 34  1  0
 14 35  1  0
 17 36  1  0
 18 37  1  0
 19 38  1  0
 20 39  1  0
M  END
>  <Energy>  (5) 
-33.49807573650974

>  <Real charge>  (5) 
0

>  <Mult>  (5) 
1

$$$$
mol_991 318
     RDKit          3D

 39 40  0  0  0  0  0  0  0  0999 V2000
    6.1626   -0.5400   -0.2064 C   0  0  0  0  0  0  0  0  0  0  0  0
    4.9898    0.4270   -0.1786 C   0  0  0  0  0  0  0  0  0  0  0  0
    3.6562   -0.3129   -0.0943 C   0  0  0  0  0  0  0  0  0  0  0  0
    2.4822    0.6596   -0.0669 C   0  0  0  0  0  0  0  0  0  0  0  0
    1.2194   -0.0481    0.0119 N   0  0  0  0  0  0  0  0  0  0  0  0
    0.0747    0.6351    0.3604 C   0  0  0  0  0  0  0  0  0  0  0  0
    0.0053    1.8181    0.6693 O   0  0  0  0  0  0  0  0  0  0  0  0
   -1.1036   -0.1333    0.2538 N   0  0  0  0  0  0  0  0  0  0  0  0
   -2.3885    0.4130    0.1670 C   0  0  0  0  0  0  0  0  0  0  0  0
   -2.6142    1.7657    0.2814 N   0  0  0  0  0  0  0  0  0  0  0  0
   -3.8443    2.3421    0.1855 C   0  0  0  0  0  0  0  0  0  0  0  0
   -4.9234    1.8125   -0.0285 O   0  0  0  0  0  0  0  0  0  0  0  0
   -3.6909    3.6845    0.3716 O   0  0  0  0  0  0  0  0  0  0  0  0
   -4.9103    4.4249    0.2999 C   0  0  0  0  0  0  0  0  0  0  0  0
   -3.2857   -0.5146   -0.0688 N   0  0  0  0  0  0  0  0  0  0  0  0
   -2.6226   -1.7042   -0.0292 C   0  0  0  0  0  0  0  0  0  0  0  0
   -3.1415   -3.0002   -0.1725 C   0  0  0  0  0  0  0  0  0  0  0  0
   -2.2847   -4.0947   -0.0299 C   0  0  0  0  0  0  0  0  0  0  0  0
   -0.9375   -3.9025    0.2666 C   0  0  0  0  0  0  0  0  0  0  0  0
   -0.4012   -2.6162    0.4053 C   0  0  0  0  0  0  0  0  0  0  0  0
   -1.2641   -1.5204    0.2172 C   0  0  0  0  0  0  0  0  0  0  0  0
    7.1066    0.0106   -0.2667 H   0  0  0  0  0  0  0  0  0  0  0  0
    6.1854   -1.1552    0.6988 H   0  0  0  0  0  0  0  0  0  0  0  0
    6.1017   -1.2058   -1.0732 H   0  0  0  0  0  0  0  0  0  0  0  0
    5.0145    1.0484   -1.0814 H   0  0  0  0  0  0  0  0  0  0  0  0
    5.0981    1.0988    0.6809 H   0  0  0  0  0  0  0  0  0  0  0  0
    3.6344   -0.9397    0.8061 H   0  0  0  0  0  0  0  0  0  0  0  0
    3.5532   -0.9911   -0.9507 H   0  0  0  0  0  0  0  0  0  0  0  0
    2.4602    1.2696   -0.9771 H   0  0  0  0  0  0  0  0  0  0  0  0
    2.5615    1.3386    0.7898 H   0  0  0  0  0  0  0  0  0  0  0  0
    1.1115   -0.8439   -0.6054 H   0  0  0  0  0  0  0  0  0  0  0  0
   -1.8300    2.3805    0.4768 H   0  0  0  0  0  0  0  0  0  0  0  0
   -5.3641    4.3226   -0.6908 H   0  0  0  0  0  0  0  0  0  0  0  0
   -5.6038    4.1001    1.0820 H   0  0  0  0  0  0  0  0  0  0  0  0
   -4.6750    5.4801    0.4641 H   0  0  0  0  0  0  0  0  0  0  0  0
   -4.1994   -3.1380   -0.3716 H   0  0  0  0  0  0  0  0  0  0  0  0
   -2.6816   -5.1023   -0.1294 H   0  0  0  0  0  0  0  0  0  0  0  0
   -0.2931   -4.7689    0.4049 H   0  0  0  0  0  0  0  0  0  0  0  0
    0.6423   -2.4998    0.6798 H   0  0  0  0  0  0  0  0  0  0  0  0
  1  2  1  0
  2  3  1  0
  3  4  1  0
  4  5  1  0
  5  6  1  0
  6  7  2  0
  6  8  1  0
  8  9  1  0
  9 10  1  0
 10 11  1  0
 11 12  2  0
 11 13  1  0
 13 14  1  0
  9 15  2  0
 15 16  1  0
 16 17  2  0
 17 18  1  0
 18 19  2  0
 19 20  1  0
 20 21  2  0
 21  8  1  0
 21 16  1  0
  1 22  1  0
  1 23  1  0
  1 24  1  0
  2 25  1  0
  2 26  1  0
  3 27  1  0
  3 28  1  0
  4 29  1  0
  4 30  1  0
  5 31  1  0
 10 32  1  0
 14 33  1  0
 14 34  1  0
 14 35  1  0
 17 36  1  0
 18 37  1  0
 19 38  1  0
 20 39  1  0
M  END
>  <Energy>  (6) 
-33.44461087827835

>  <Real charge>  (6) 
0

>  <Mult>  (6) 
1

$$$$
mol_991 42
     RDKit          3D

 39 40  0  0  0  0  0  0  0  0999 V2000
   -4.1437    1.8817    1.4323 C   0  0  0  0  0  0  0  0  0  0  0  0
   -3.1370    1.4522    0.3761 C   0  0  0  0  0  0  0  0  0  0  0  0
   -3.6597    0.2728   -0.4459 C   0  0  0  0  0  0  0  0  0  0  0  0
   -2.7257   -0.1311   -1.5872 C   0  0  0  0  0  0  0  0  0  0  0  0
   -1.4848   -0.7132   -1.1146 N   0  0  0  0  0  0  0  0  0  0  0  0
   -0.3360    0.0368   -1.0067 C   0  0  0  0  0  0  0  0  0  0  0  0
   -0.2189    1.2254   -1.2768 O   0  0  0  0  0  0  0  0  0  0  0  0
    0.7519   -0.6628   -0.4447 N   0  0  0  0  0  0  0  0  0  0  0  0
    1.8490   -0.0424    0.1623 C   0  0  0  0  0  0  0  0  0  0  0  0
    2.0029    1.3251    0.1645 N   0  0  0  0  0  0  0  0  0  0  0  0
    3.0423    1.9724    0.7604 C   0  0  0  0  0  0  0  0  0  0  0  0
    3.9763    1.5026    1.3910 O   0  0  0  0  0  0  0  0  0  0  0  0
    2.8810    3.3089    0.5417 O   0  0  0  0  0  0  0  0  0  0  0  0
    3.9084    4.1201    1.1132 C   0  0  0  0  0  0  0  0  0  0  0  0
    2.6368   -0.9219    0.7342 N   0  0  0  0  0  0  0  0  0  0  0  0
    2.1355   -2.1473    0.4125 C   0  0  0  0  0  0  0  0  0  0  0  0
    2.6448   -3.4137    0.7383 C   0  0  0  0  0  0  0  0  0  0  0  0
    2.0052   -4.5518    0.2401 C   0  0  0  0  0  0  0  0  0  0  0  0
    0.8885   -4.4303   -0.5831 C   0  0  0  0  0  0  0  0  0  0  0  0
    0.3620   -3.1748   -0.9118 C   0  0  0  0  0  0  0  0  0  0  0  0
    0.9861   -2.0373   -0.3666 C   0  0  0  0  0  0  0  0  0  0  0  0
   -4.3580    1.0624    2.1259 H   0  0  0  0  0  0  0  0  0  0  0  0
   -5.0852    2.1979    0.9718 H   0  0  0  0  0  0  0  0  0  0  0  0
   -3.7498    2.7230    2.0111 H   0  0  0  0  0  0  0  0  0  0  0  0
   -2.9238    2.3015   -0.2830 H   0  0  0  0  0  0  0  0  0  0  0  0
   -2.2004    1.1812    0.8753 H   0  0  0  0  0  0  0  0  0  0  0  0
   -4.6320    0.5411   -0.8771 H   0  0  0  0  0  0  0  0  0  0  0  0
   -3.8283   -0.5867    0.2147 H   0  0  0  0  0  0  0  0  0  0  0  0
   -2.5145    0.7255   -2.2364 H   0  0  0  0  0  0  0  0  0  0  0  0
   -3.2131   -0.9008   -2.1950 H   0  0  0  0  0  0  0  0  0  0  0  0
   -1.5571   -1.5850   -0.6064 H   0  0  0  0  0  0  0  0  0  0  0  0
    1.3242    1.8971   -0.3290 H   0  0  0  0  0  0  0  0  0  0  0  0
    3.6844    5.1643    0.8782 H   0  0  0  0  0  0  0  0  0  0  0  0
    4.8817    3.8698    0.6794 H   0  0  0  0  0  0  0  0  0  0  0  0
    3.9260    4.0073    2.2017 H   0  0  0  0  0  0  0  0  0  0  0  0
    3.5360   -3.4944    1.3523 H   0  0  0  0  0  0  0  0  0  0  0  0
    2.4004   -5.5363    0.4797 H   0  0  0  0  0  0  0  0  0  0  0  0
    0.4248   -5.3281   -0.9883 H   0  0  0  0  0  0  0  0  0  0  0  0
   -0.4802   -3.1112   -1.5931 H   0  0  0  0  0  0  0  0  0  0  0  0
  1  2  1  0
  2  3  1  0
  3  4  1  0
  4  5  1  0
  5  6  1  0
  6  7  2  0
  6  8  1  0
  8  9  1  0
  9 10  1  0
 10 11  1  0
 11 12  2  0
 11 13  1  0
 13 14  1  0
  9 15  2  0
 15 16  1  0
 16 17  2  0
 17 18  1  0
 18 19  2  0
 19 20  1  0
 20 21  2  0
 21  8  1  0
 21 16  1  0
  1 22  1  0
  1 23  1  0
  1 24  1  0
  2 25  1  0
  2 26  1  0
  3 27  1  0
  3 28  1  0
  4 29  1  0
  4 30  1  0
  5 31  1  0
 10 32  1  0
 14 33  1  0
 14 34  1  0
 14 35  1  0
 17 36  1  0
 18 37  1  0
 19 38  1  0
 20 39  1  0
M  END
>  <Energy>  (7) 
-33.27193339479335

>  <Real charge>  (7) 
0

>  <Mult>  (7) 
1

$$$$
mol_991 454
     RDKit          3D

 39 40  0  0  0  0  0  0  0  0999 V2000
   -4.7198   -0.0331    0.8889 C   0  0  0  0  0  0  0  0  0  0  0  0
   -4.1997   -1.0354   -0.1297 C   0  0  0  0  0  0  0  0  0  0  0  0
   -3.7321   -0.3923   -1.4388 C   0  0  0  0  0  0  0  0  0  0  0  0
   -2.5656    0.5810   -1.2900 C   0  0  0  0  0  0  0  0  0  0  0  0
   -1.3681   -0.0704   -0.7967 N   0  0  0  0  0  0  0  0  0  0  0  0
   -0.3427    0.6891   -0.2768 C   0  0  0  0  0  0  0  0  0  0  0  0
   -0.3483    1.9048   -0.1293 O   0  0  0  0  0  0  0  0  0  0  0  0
    0.8239   -0.0479    0.0176 N   0  0  0  0  0  0  0  0  0  0  0  0
    2.0908    0.5249    0.1744 C   0  0  0  0  0  0  0  0  0  0  0  0
    2.2823    1.8875    0.1523 N   0  0  0  0  0  0  0  0  0  0  0  0
    3.4982    2.4869    0.2828 C   0  0  0  0  0  0  0  0  0  0  0  0
    4.5962    1.9699    0.4166 O   0  0  0  0  0  0  0  0  0  0  0  0
    3.3045    3.8362    0.2374 O   0  0  0  0  0  0  0  0  0  0  0  0
    4.5041    4.6007    0.3657 C   0  0  0  0  0  0  0  0  0  0  0  0
    3.0180   -0.3950    0.2971 N   0  0  0  0  0  0  0  0  0  0  0  0
    2.3653   -1.5901    0.3365 C   0  0  0  0  0  0  0  0  0  0  0  0
    2.9035   -2.8751    0.5058 C   0  0  0  0  0  0  0  0  0  0  0  0
    2.0382   -3.9694    0.5835 C   0  0  0  0  0  0  0  0  0  0  0  0
    0.6598   -3.7852    0.5105 C   0  0  0  0  0  0  0  0  0  0  0  0
    0.1061   -2.5110    0.3339 C   0  0  0  0  0  0  0  0  0  0  0  0
    0.9881   -1.4211    0.2137 C   0  0  0  0  0  0  0  0  0  0  0  0
   -3.9213    0.6203    1.2523 H   0  0  0  0  0  0  0  0  0  0  0  0
   -5.5106    0.5901    0.4595 H   0  0  0  0  0  0  0  0  0  0  0  0
   -5.1355   -0.5591    1.7544 H   0  0  0  0  0  0  0  0  0  0  0  0
   -3.3884   -1.6199    0.3178 H   0  0  0  0  0  0  0  0  0  0  0  0
   -5.0035   -1.7444   -0.3622 H   0  0  0  0  0  0  0  0  0  0  0  0
   -3.4461   -1.1932   -2.1323 H   0  0  0  0  0  0  0  0  0  0  0  0
   -4.5753    0.1362   -1.8999 H   0  0  0  0  0  0  0  0  0  0  0  0
   -2.3155    1.0064   -2.2689 H   0  0  0  0  0  0  0  0  0  0  0  0
   -2.8249    1.4183   -0.6338 H   0  0  0  0  0  0  0  0  0  0  0  0
   -1.1171   -0.9439   -1.2436 H   0  0  0  0  0  0  0  0  0  0  0  0
    1.4746    2.4963    0.0613 H   0  0  0  0  0  0  0  0  0  0  0  0
    4.9814    4.4078    1.3316 H   0  0  0  0  0  0  0  0  0  0  0  0
    5.1896    4.3813   -0.4588 H   0  0  0  0  0  0  0  0  0  0  0  0
    4.2363    5.6600    0.3189 H   0  0  0  0  0  0  0  0  0  0  0  0
    3.9777   -3.0019    0.5937 H   0  0  0  0  0  0  0  0  0  0  0  0
    2.4474   -4.9670    0.7248 H   0  0  0  0  0  0  0  0  0  0  0  0
    0.0009   -4.6468    0.6047 H   0  0  0  0  0  0  0  0  0  0  0  0
   -0.9724   -2.3954    0.3251 H   0  0  0  0  0  0  0  0  0  0  0  0
  1  2  1  0
  2  3  1  0
  3  4  1  0
  4  5  1  0
  5  6  1  0
  6  7  2  0
  6  8  1  0
  8  9  1  0
  9 10  1  0
 10 11  1  0
 11 12  2  0
 11 13  1  0
 13 14  1  0
  9 15  2  0
 15 16  1  0
 16 17  2  0
 17 18  1  0
 18 19  2  0
 19 20  1  0
 20 21  2  0
 21  8  1  0
 21 16  1  0
  1 22  1  0
  1 23  1  0
  1 24  1  0
  2 25  1  0
  2 26  1  0
  3 27  1  0
  3 28  1  0
  4 29  1  0
  4 30  1  0
  5 31  1  0
 10 32  1  0
 14 33  1  0
 14 34  1  0
 14 35  1  0
 17 36  1  0
 18 37  1  0
 19 38  1  0
 20 39  1  0
M  END
>  <Energy>  (8) 
-33.25922248998584

>  <Real charge>  (8) 
0

>  <Mult>  (8) 
1

$$$$
mol_991 113
     RDKit          3D

 39 40  0  0  0  0  0  0  0  0999 V2000
   -4.6981   -0.4831    0.7499 C   0  0  0  0  0  0  0  0  0  0  0  0
   -3.6298    0.5730    0.9858 C   0  0  0  0  0  0  0  0  0  0  0  0
   -3.2612    1.3645   -0.2728 C   0  0  0  0  0  0  0  0  0  0  0  0
   -2.6833    0.5260   -1.4141 C   0  0  0  0  0  0  0  0  0  0  0  0
   -1.4737   -0.1791   -1.0396 N   0  0  0  0  0  0  0  0  0  0  0  0
   -0.2614    0.4718   -0.9993 C   0  0  0  0  0  0  0  0  0  0  0  0
   -0.0626    1.6473   -1.2789 O   0  0  0  0  0  0  0  0  0  0  0  0
    0.7950   -0.3184   -0.5005 N   0  0  0  0  0  0  0  0  0  0  0  0
    1.9811    0.2051    0.0248 C   0  0  0  0  0  0  0  0  0  0  0  0
    2.2567    1.5531   -0.0013 N   0  0  0  0  0  0  0  0  0  0  0  0
    3.3881    2.1080    0.5150 C   0  0  0  0  0  0  0  0  0  0  0  0
    4.3171    1.5603    1.0873 O   0  0  0  0  0  0  0  0  0  0  0  0
    3.3326    3.4522    0.2904 O   0  0  0  0  0  0  0  0  0  0  0  0
    4.4651    4.1712    0.7809 C   0  0  0  0  0  0  0  0  0  0  0  0
    2.7241   -0.7375    0.5546 N   0  0  0  0  0  0  0  0  0  0  0  0
    2.0947   -1.9151    0.2837 C   0  0  0  0  0  0  0  0  0  0  0  0
    2.5092   -3.2197    0.5930 C   0  0  0  0  0  0  0  0  0  0  0  0
    1.7377   -4.2994    0.1554 C   0  0  0  0  0  0  0  0  0  0  0  0
    0.5826   -4.0842   -0.5923 C   0  0  0  0  0  0  0  0  0  0  0  0
    0.1500   -2.7889   -0.9032 C   0  0  0  0  0  0  0  0  0  0  0  0
    0.9098   -1.7080   -0.4186 C   0  0  0  0  0  0  0  0  0  0  0  0
   -4.9921   -0.9384    1.7011 H   0  0  0  0  0  0  0  0  0  0  0  0
   -4.3337   -1.2837    0.0996 H   0  0  0  0  0  0  0  0  0  0  0  0
   -5.5912   -0.0443    0.2940 H   0  0  0  0  0  0  0  0  0  0  0  0
   -3.9983    1.2786    1.7403 H   0  0  0  0  0  0  0  0  0  0  0  0
   -2.7377    0.1002    1.4120 H   0  0  0  0  0  0  0  0  0  0  0  0
   -2.5384    2.1393    0.0110 H   0  0  0  0  0  0  0  0  0  0  0  0
   -4.1518    1.8889   -0.6402 H   0  0  0  0  0  0  0  0  0  0  0  0
   -2.4538    1.1812   -2.2624 H   0  0  0  0  0  0  0  0  0  0  0  0
   -3.4031   -0.2214   -1.7609 H   0  0  0  0  0  0  0  0  0  0  0  0
   -1.5929   -1.0217   -0.4920 H   0  0  0  0  0  0  0  0  0  0  0  0
    1.5997    2.1807   -0.4548 H   0  0  0  0  0  0  0  0  0  0  0  0
    4.3200    5.2297    0.5481 H   0  0  0  0  0  0  0  0  0  0  0  0
    4.5467    4.0647    1.8672 H   0  0  0  0  0  0  0  0  0  0  0  0
    5.3802    3.8311    0.2859 H   0  0  0  0  0  0  0  0  0  0  0  0
    3.4292   -3.3755    1.1471 H   0  0  0  0  0  0  0  0  0  0  0  0
    2.0581   -5.3136    0.3823 H   0  0  0  0  0  0  0  0  0  0  0  0
    0.0133   -4.9396   -0.9520 H   0  0  0  0  0  0  0  0  0  0  0  0
   -0.7281   -2.6553   -1.5266 H   0  0  0  0  0  0  0  0  0  0  0  0
  1  2  1  0
  2  3  1  0
  3  4  1  0
  4  5  1  0
  5  6  1  0
  6  7  2  0
  6  8  1  0
  8  9  1  0
  9 10  1  0
 10 11  1  0
 11 12  2  0
 11 13  1  0
 13 14  1  0
  9 15  2  0
 15 16  1  0
 16 17  2  0
 17 18  1  0
 18 19  2  0
 19 20  1  0
 20 21  2  0
 21  8  1  0
 21 16  1  0
  1 22  1  0
  1 23  1  0
  1 24  1  0
  2 25  1  0
  2 26  1  0
  3 27  1  0
  3 28  1  0
  4 29  1  0
  4 30  1  0
  5 31  1  0
 10 32  1  0
 14 33  1  0
 14 34  1  0
 14 35  1  0
 17 36  1  0
 18 37  1  0
 19 38  1  0
 20 39  1  0
M  END
>  <Energy>  (9) 
-33.216273720837535

>  <Real charge>  (9) 
0

>  <Mult>  (9) 
1

$$$$
mol_991 400
     RDKit          3D

 39 40  0  0  0  0  0  0  0  0999 V2000
    5.5714   -1.1646    1.1402 C   0  0  0  0  0  0  0  0  0  0  0  0
    4.6295   -0.0026    1.4120 C   0  0  0  0  0  0  0  0  0  0  0  0
    3.3586   -0.1035    0.5703 C   0  0  0  0  0  0  0  0  0  0  0  0
    2.4169    1.0667    0.8455 C   0  0  0  0  0  0  0  0  0  0  0  0
    1.2243    0.9988    0.0239 N   0  0  0  0  0  0  0  0  0  0  0  0
    0.1763    0.1755    0.3694 C   0  0  0  0  0  0  0  0  0  0  0  0
    0.1231   -0.5523    1.3528 O   0  0  0  0  0  0  0  0  0  0  0  0
   -0.9421    0.2855   -0.4827 N   0  0  0  0  0  0  0  0  0  0  0  0
   -2.2375   -0.1040   -0.1261 C   0  0  0  0  0  0  0  0  0  0  0  0
   -2.5065   -0.7312    1.0689 N   0  0  0  0  0  0  0  0  0  0  0  0
   -3.7531   -1.1106    1.4646 C   0  0  0  0  0  0  0  0  0  0  0  0
   -4.8183   -0.9614    0.8868 O   0  0  0  0  0  0  0  0  0  0  0  0
   -3.6372   -1.7192    2.6797 O   0  0  0  0  0  0  0  0  0  0  0  0
   -4.8770   -2.1758    3.2223 C   0  0  0  0  0  0  0  0  0  0  0  0
   -3.1087    0.2444   -1.0431 N   0  0  0  0  0  0  0  0  0  0  0  0
   -2.3870    0.7642   -2.0753 C   0  0  0  0  0  0  0  0  0  0  0  0
   -2.8471    1.2344   -3.3150 C   0  0  0  0  0  0  0  0  0  0  0  0
   -1.9178    1.6640   -4.2659 C   0  0  0  0  0  0  0  0  0  0  0  0
   -0.5530    1.6100   -3.9936 C   0  0  0  0  0  0  0  0  0  0  0  0
   -0.0767    1.1514   -2.7590 C   0  0  0  0  0  0  0  0  0  0  0  0
   -1.0232    0.7642   -1.7922 C   0  0  0  0  0  0  0  0  0  0  0  0
    5.8752   -1.1857    0.0887 H   0  0  0  0  0  0  0  0  0  0  0  0
    5.0946   -2.1205    1.3797 H   0  0  0  0  0  0  0  0  0  0  0  0
    6.4738   -1.0723    1.7527 H   0  0  0  0  0  0  0  0  0  0  0  0
    5.1473    0.9386    1.1937 H   0  0  0  0  0  0  0  0  0  0  0  0
    4.3704    0.0087    2.4772 H   0  0  0  0  0  0  0  0  0  0  0  0
    2.8497   -1.0517    0.7827 H   0  0  0  0  0  0  0  0  0  0  0  0
    3.6192   -0.1206   -0.4955 H   0  0  0  0  0  0  0  0  0  0  0  0
    2.9121    2.0159    0.6140 H   0  0  0  0  0  0  0  0  0  0  0  0
    2.1195    1.0850    1.9000 H   0  0  0  0  0  0  0  0  0  0  0  0
    1.0473    1.7831   -0.5908 H   0  0  0  0  0  0  0  0  0  0  0  0
   -1.7357   -0.9578    1.6899 H   0  0  0  0  0  0  0  0  0  0  0  0
   -5.5577   -1.3345    3.3863 H   0  0  0  0  0  0  0  0  0  0  0  0
   -4.6706   -2.6458    4.1879 H   0  0  0  0  0  0  0  0  0  0  0  0
   -5.3322   -2.9233    2.5649 H   0  0  0  0  0  0  0  0  0  0  0  0
   -3.9112    1.2396   -3.5279 H   0  0  0  0  0  0  0  0  0  0  0  0
   -2.2662    2.0198   -5.2327 H   0  0  0  0  0  0  0  0  0  0  0  0
    0.1561    1.9183   -4.7600 H   0  0  0  0  0  0  0  0  0  0  0  0
    0.9933    1.0777   -2.5939 H   0  0  0  0  0  0  0  0  0  0  0  0
  1  2  1  0
  2  3  1  0
  3  4  1  0
  4  5  1  0
  5  6  1  0
  6  7  2  0
  6  8  1  0
  8  9  1  0
  9 10  1  0
 10 11  1  0
 11 12  2  0
 11 13  1  0
 13 14  1  0
  9 15  2  0
 15 16  1  0
 16 17  2  0
 17 18  1  0
 18 19  2  0
 19 20  1  0
 20 21  2  0
 21  8  1  0
 21 16  1  0
  1 22  1  0
  1 23  1  0
  1 24  1  0
  2 25  1  0
  2 26  1  0
  3 27  1  0
  3 28  1  0
  4 29  1  0
  4 30  1  0
  5 31  1  0
 10 32  1  0
 14 33  1  0
 14 34  1  0
 14 35  1  0
 17 36  1  0
 18 37  1  0
 19 38  1  0
 20 39  1  0
M  END
>  <Energy>  (10) 
-33.10917206518904

>  <Real charge>  (10) 
0

>  <Mult>  (10) 
1

$$$$
mol_991 351
     RDKit          3D

 39 40  0  0  0  0  0  0  0  0999 V2000
    4.8694   -0.6594    0.0963 C   0  0  0  0  0  0  0  0  0  0  0  0
    3.8660   -0.2788    1.1734 C   0  0  0  0  0  0  0  0  0  0  0  0
    3.3454    1.1566    1.0485 C   0  0  0  0  0  0  0  0  0  0  0  0
    2.6094    1.4611   -0.2569 C   0  0  0  0  0  0  0  0  0  0  0  0
    1.4663    0.5971   -0.4728 N   0  0  0  0  0  0  0  0  0  0  0  0
    0.2794    0.8125    0.1895 C   0  0  0  0  0  0  0  0  0  0  0  0
    0.0475    1.7156    0.9832 O   0  0  0  0  0  0  0  0  0  0  0  0
   -0.7506   -0.0760   -0.1826 N   0  0  0  0  0  0  0  0  0  0  0  0
   -2.1118    0.1793    0.0133 C   0  0  0  0  0  0  0  0  0  0  0  0
   -2.5540    1.2934    0.6891 N   0  0  0  0  0  0  0  0  0  0  0  0
   -3.8681    1.5909    0.8870 C   0  0  0  0  0  0  0  0  0  0  0  0
   -4.8564    0.9808    0.5102 O   0  0  0  0  0  0  0  0  0  0  0  0
   -3.9295    2.7450    1.6113 O   0  0  0  0  0  0  0  0  0  0  0  0
   -5.2588    3.1812    1.8990 C   0  0  0  0  0  0  0  0  0  0  0  0
   -2.8552   -0.7397   -0.5561 N   0  0  0  0  0  0  0  0  0  0  0  0
   -1.9949   -1.6813   -1.0357 C   0  0  0  0  0  0  0  0  0  0  0  0
   -2.2934   -2.8898   -1.6837 C   0  0  0  0  0  0  0  0  0  0  0  0
   -1.2485   -3.7494   -2.0330 C   0  0  0  0  0  0  0  0  0  0  0  0
    0.0693   -3.4193   -1.7267 C   0  0  0  0  0  0  0  0  0  0  0  0
    0.3860   -2.2139   -1.0878 C   0  0  0  0  0  0  0  0  0  0  0  0
   -0.6699   -1.3352   -0.7815 C   0  0  0  0  0  0  0  0  0  0  0  0
    4.4025   -0.6934   -0.8925 H   0  0  0  0  0  0  0  0  0  0  0  0
    5.2810   -1.6529    0.3012 H   0  0  0  0  0  0  0  0  0  0  0  0
    5.7008    0.0517    0.0640 H   0  0  0  0  0  0  0  0  0  0  0  0
    4.3480   -0.3860    2.1527 H   0  0  0  0  0  0  0  0  0  0  0  0
    3.0303   -0.9876    1.1591 H   0  0  0  0  0  0  0  0  0  0  0  0
    2.6782    1.3522    1.8969 H   0  0  0  0  0  0  0  0  0  0  0  0
    4.1864    1.8538    1.1471 H   0  0  0  0  0  0  0  0  0  0  0  0
    3.2753    1.3467   -1.1178 H   0  0  0  0  0  0  0  0  0  0  0  0
    2.2615    2.5005   -0.2472 H   0  0  0  0  0  0  0  0  0  0  0  0
    1.4586    0.0546   -1.3271 H   0  0  0  0  0  0  0  0  0  0  0  0
   -1.8710    1.9250    1.0963 H   0  0  0  0  0  0  0  0  0  0  0  0
   -5.8021    3.3942    0.9730 H   0  0  0  0  0  0  0  0  0  0  0  0
   -5.7876    2.4333    2.4982 H   0  0  0  0  0  0  0  0  0  0  0  0
   -5.1928    4.1051    2.4804 H   0  0  0  0  0  0  0  0  0  0  0  0
   -3.3269   -3.1515   -1.8865 H   0  0  0  0  0  0  0  0  0  0  0  0
   -1.4729   -4.6925   -2.5259 H   0  0  0  0  0  0  0  0  0  0  0  0
    0.8660   -4.1175   -1.9777 H   0  0  0  0  0  0  0  0  0  0  0  0
    1.4173   -2.0064   -0.8217 H   0  0  0  0  0  0  0  0  0  0  0  0
  1  2  1  0
  2  3  1  0
  3  4  1  0
  4  5  1  0
  5  6  1  0
  6  7  2  0
  6  8  1  0
  8  9  1  0
  9 10  1  0
 10 11  1  0
 11 12  2  0
 11 13  1  0
 13 14  1  0
  9 15  2  0
 15 16  1  0
 16 17  2  0
 17 18  1  0
 18 19  2  0
 19 20  1  0
 20 21  2  0
 21  8  1  0
 21 16  1  0
  1 22  1  0
  1 23  1  0
  1 24  1  0
  2 25  1  0
  2 26  1  0
  3 27  1  0
  3 28  1  0
  4 29  1  0
  4 30  1  0
  5 31  1  0
 10 32  1  0
 14 33  1  0
 14 34  1  0
 14 35  1  0
 17 36  1  0
 18 37  1  0
 19 38  1  0
 20 39  1  0
M  END
>  <Energy>  (11) 
-32.98042640186699

>  <Real charge>  (11) 
0

>  <Mult>  (11) 
1

$$$$
