mol_465 3
     RDKit          3D

 27 27  0  0  0  0  0  0  0  0999 V2000
   -2.5890   -0.5697    1.4355 C   0  0  0  0  0  0  0  0  0  0  0  0
   -1.5000   -0.1737    0.4170 C   0  0  0  0  0  0  0  0  0  0  0  0
   -1.7053    1.3045    0.0441 C   0  0  0  0  0  0  0  0  0  0  0  0
   -1.6795   -1.0414   -0.8404 C   0  0  0  0  0  0  0  0  0  0  0  0
   -0.1157   -0.4102    1.0846 C   0  0  0  0  0  0  0  0  0  0  0  0
    1.1058   -0.0843    0.2558 C   0  0  0  0  0  0  0  0  0  0  0  0
    1.6989   -1.0611   -0.5560 C   0  0  0  0  0  0  0  0  0  0  0  0
    2.8283   -0.7604   -1.3193 C   0  0  0  0  0  0  0  0  0  0  0  0
    3.3797    0.5183   -1.2763 C   0  0  0  0  0  0  0  0  0  0  0  0
    2.8036    1.4963   -0.4685 C   0  0  0  0  0  0  0  0  0  0  0  0
    1.6741    1.1965    0.2952 C   0  0  0  0  0  0  0  0  0  0  0  0
   -3.5934   -0.4246    1.0215 H   0  0  0  0  0  0  0  0  0  0  0  0
   -2.4977   -1.6233    1.7229 H   0  0  0  0  0  0  0  0  0  0  0  0
   -2.5159    0.0335    2.3475 H   0  0  0  0  0  0  0  0  0  0  0  0
   -1.5488    1.9565    0.9106 H   0  0  0  0  0  0  0  0  0  0  0  0
   -2.7234    1.4801   -0.3224 H   0  0  0  0  0  0  0  0  0  0  0  0
   -1.0198    1.6221   -0.7484 H   0  0  0  0  0  0  0  0  0  0  0  0
   -1.5042   -2.1001   -0.6189 H   0  0  0  0  0  0  0  0  0  0  0  0
   -0.9939   -0.7436   -1.6403 H   0  0  0  0  0  0  0  0  0  0  0  0
   -2.6967   -0.9509   -1.2390 H   0  0  0  0  0  0  0  0  0  0  0  0
   -0.0584    0.1687    2.0174 H   0  0  0  0  0  0  0  0  0  0  0  0
   -0.0406   -1.4596    1.4035 H   0  0  0  0  0  0  0  0  0  0  0  0
    1.2827   -2.0650   -0.5994 H   0  0  0  0  0  0  0  0  0  0  0  0
    3.2780   -1.5251   -1.9469 H   0  0  0  0  0  0  0  0  0  0  0  0
    4.2589    0.7520   -1.8704 H   0  0  0  0  0  0  0  0  0  0  0  0
    3.2339    2.4935   -0.4318 H   0  0  0  0  0  0  0  0  0  0  0  0
    1.2384    1.9710    0.9223 H   0  0  0  0  0  0  0  0  0  0  0  0
  1  2  1  0
  2  3  1  0
  2  4  1  0
  2  5  1  0
  5  6  1  0
  6  7  2  0
  7  8  1  0
  8  9  2  0
  9 10  1  0
 10 11  2  0
 11  6  1  0
  1 12  1  0
  1 13  1  0
  1 14  1  0
  3 15  1  0
  3 16  1  0
  3 17  1  0
  4 18  1  0
  4 19  1  0
  4 20  1  0
  5 21  1  0
  5 22  1  0
  7 23  1  0
  8 24  1  0
  9 25  1  0
 10 26  1  0
 11 27  1  0
M  END
>  <Energy>  (1) 
32.28673120069105

>  <Real charge>  (1) 
0

>  <Mult>  (1) 
1

$$$$
