mol_310 80
     RDKit          3D

 25 25  0  0  0  0  0  0  0  0999 V2000
    2.5502   -0.8244    0.6843 O   0  0  0  0  0  0  0  0  0  0  0  0
    1.7353   -0.1519   -0.2765 C   0  0  0  0  0  0  0  0  0  0  0  0
    0.7807   -1.1671   -0.9041 C   0  0  0  0  0  0  0  0  0  0  0  0
   -0.1880   -1.8769    0.0410 C   0  0  0  0  0  0  0  0  0  0  0  0
   -1.2230   -1.0176    0.7668 C   0  0  0  0  0  0  0  0  0  0  0  0
   -1.9242    0.0280   -0.1010 C   0  0  0  0  0  0  0  0  0  0  0  0
   -1.4130    1.4581    0.0872 C   0  0  0  0  0  0  0  0  0  0  0  0
    0.0002    1.7573   -0.4176 C   0  0  0  0  0  0  0  0  0  0  0  0
    1.1130    1.0820    0.3823 C   0  0  0  0  0  0  0  0  0  0  0  0
    3.1941   -0.1808    1.0259 H   0  0  0  0  0  0  0  0  0  0  0  0
    2.4084    0.1910   -1.0727 H   0  0  0  0  0  0  0  0  0  0  0  0
    1.3967   -1.9554   -1.3594 H   0  0  0  0  0  0  0  0  0  0  0  0
    0.2338   -0.7123   -1.7362 H   0  0  0  0  0  0  0  0  0  0  0  0
    0.3764   -2.4498    0.7871 H   0  0  0  0  0  0  0  0  0  0  0  0
   -0.7318   -2.6232   -0.5538 H   0  0  0  0  0  0  0  0  0  0  0  0
   -0.7864   -0.5615    1.6606 H   0  0  0  0  0  0  0  0  0  0  0  0
   -1.9878   -1.7064    1.1510 H   0  0  0  0  0  0  0  0  0  0  0  0
   -1.9129   -0.2515   -1.1601 H   0  0  0  0  0  0  0  0  0  0  0  0
   -2.9835    0.0361    0.1895 H   0  0  0  0  0  0  0  0  0  0  0  0
   -2.1012    2.1262   -0.4470 H   0  0  0  0  0  0  0  0  0  0  0  0
   -1.4886    1.7361    1.1462 H   0  0  0  0  0  0  0  0  0  0  0  0
    0.1414    2.8426   -0.3240 H   0  0  0  0  0  0  0  0  0  0  0  0
    0.0832    1.5420   -1.4884 H   0  0  0  0  0  0  0  0  0  0  0  0
    1.9272    1.8102    0.5089 H   0  0  0  0  0  0  0  0  0  0  0  0
    0.7998    0.8693    1.4101 H   0  0  0  0  0  0  0  0  0  0  0  0
  1  2  1  0
  2  3  1  0
  3  4  1  0
  4  5  1  0
  5  6  1  0
  6  7  1  0
  7  8  1  0
  8  9  1  0
  9  2  1  0
  1 10  1  0
  2 11  1  0
  3 12  1  0
  3 13  1  0
  4 14  1  0
  4 15  1  0
  5 16  1  0
  5 17  1  0
  6 18  1  0
  6 19  1  0
  7 20  1  0
  7 21  1  0
  8 22  1  0
  8 23  1  0
  9 24  1  0
  9 25  1  0
M  END
>  <Energy>  (1) 
17.692175841537114

>  <Real charge>  (1) 
0

>  <Mult>  (1) 
1

$$$$
mol_310 165
     RDKit          3D

 25 25  0  0  0  0  0  0  0  0999 V2000
    2.7796   -1.1428   -0.5387 O   0  0  0  0  0  0  0  0  0  0  0  0
    1.5970   -0.7628    0.1766 C   0  0  0  0  0  0  0  0  0  0  0  0
    0.4491   -1.5880   -0.4149 C   0  0  0  0  0  0  0  0  0  0  0  0
   -0.8787   -1.4780    0.3319 C   0  0  0  0  0  0  0  0  0  0  0  0
   -1.9193   -0.5683   -0.3203 C   0  0  0  0  0  0  0  0  0  0  0  0
   -1.4410    0.7751   -0.8615 C   0  0  0  0  0  0  0  0  0  0  0  0
   -0.9095    1.7605    0.1742 C   0  0  0  0  0  0  0  0  0  0  0  0
    0.3554    1.3692    0.9376 C   0  0  0  0  0  0  0  0  0  0  0  0
    1.4690    0.7628    0.0857 C   0  0  0  0  0  0  0  0  0  0  0  0
    3.5350   -0.7021   -0.1135 H   0  0  0  0  0  0  0  0  0  0  0  0
    1.7514   -1.0585    1.2213 H   0  0  0  0  0  0  0  0  0  0  0  0
    0.3332   -1.3815   -1.4856 H   0  0  0  0  0  0  0  0  0  0  0  0
    0.7632   -2.6411   -0.3777 H   0  0  0  0  0  0  0  0  0  0  0  0
   -1.3250   -2.4809    0.3783 H   0  0  0  0  0  0  0  0  0  0  0  0
   -0.7212   -1.1983    1.3780 H   0  0  0  0  0  0  0  0  0  0  0  0
   -2.7366   -0.4038    0.3929 H   0  0  0  0  0  0  0  0  0  0  0  0
   -2.3640   -1.1177   -1.1609 H   0  0  0  0  0  0  0  0  0  0  0  0
   -2.3010    1.2520   -1.3511 H   0  0  0  0  0  0  0  0  0  0  0  0
   -0.7091    0.6279   -1.6621 H   0  0  0  0  0  0  0  0  0  0  0  0
   -0.7058    2.7042   -0.3493 H   0  0  0  0  0  0  0  0  0  0  0  0
   -1.7001    1.9879    0.9002 H   0  0  0  0  0  0  0  0  0  0  0  0
    0.7424    2.2904    1.3944 H   0  0  0  0  0  0  0  0  0  0  0  0
    0.1113    0.7229    1.7861 H   0  0  0  0  0  0  0  0  0  0  0  0
    2.4201    1.1861    0.4389 H   0  0  0  0  0  0  0  0  0  0  0  0
    1.4047    1.0850   -0.9604 H   0  0  0  0  0  0  0  0  0  0  0  0
  1  2  1  0
  2  3  1  0
  3  4  1  0
  4  5  1  0
  5  6  1  0
  6  7  1  0
  7  8  1  0
  8  9  1  0
  9  2  1  0
  1 10  1  0
  2 11  1  0
  3 12  1  0
  3 13  1  0
  4 14  1  0
  4 15  1  0
  5 16  1  0
  5 17  1  0
  6 18  1  0
  6 19  1  0
  7 20  1  0
  7 21  1  0
  8 22  1  0
  8 23  1  0
  9 24  1  0
  9 25  1  0
M  END
>  <Energy>  (2) 
17.76704726029015

>  <Real charge>  (2) 
0

>  <Mult>  (2) 
1

$$$$
mol_310 74
     RDKit          3D

 25 25  0  0  0  0  0  0  0  0999 V2000
    2.7649   -0.0170   -1.1881 O   0  0  0  0  0  0  0  0  0  0  0  0
    1.4177   -0.0046   -0.6923 C   0  0  0  0  0  0  0  0  0  0  0  0
    1.1839   -1.3325    0.0270 C   0  0  0  0  0  0  0  0  0  0  0  0
   -0.2150   -1.6100    0.5744 C   0  0  0  0  0  0  0  0  0  0  0  0
   -1.3654   -1.2499   -0.3657 C   0  0  0  0  0  0  0  0  0  0  0  0
   -2.0814    0.0584   -0.0228 C   0  0  0  0  0  0  0  0  0  0  0  0
   -1.2938    1.3530   -0.2362 C   0  0  0  0  0  0  0  0  0  0  0  0
   -0.1280    1.5545    0.7318 C   0  0  0  0  0  0  0  0  0  0  0  0
    1.2552    1.2563    0.1557 C   0  0  0  0  0  0  0  0  0  0  0  0
    3.3634   -0.0715   -0.4234 H   0  0  0  0  0  0  0  0  0  0  0  0
    0.7871    0.0571   -1.5832 H   0  0  0  0  0  0  0  0  0  0  0  0
    1.9100   -1.4419    0.8436 H   0  0  0  0  0  0  0  0  0  0  0  0
    1.4396   -2.1383   -0.6755 H   0  0  0  0  0  0  0  0  0  0  0  0
   -0.3448   -1.1425    1.5553 H   0  0  0  0  0  0  0  0  0  0  0  0
   -0.2653   -2.6895    0.7724 H   0  0  0  0  0  0  0  0  0  0  0  0
   -2.1172   -2.0464   -0.2817 H   0  0  0  0  0  0  0  0  0  0  0  0
   -1.0486   -1.2557   -1.4142 H   0  0  0  0  0  0  0  0  0  0  0  0
   -2.4410    0.0168    1.0132 H   0  0  0  0  0  0  0  0  0  0  0  0
   -2.9813    0.1143   -0.6493 H   0  0  0  0  0  0  0  0  0  0  0  0
   -2.0010    2.1773   -0.0716 H   0  0  0  0  0  0  0  0  0  0  0  0
   -0.9742    1.4453   -1.2799 H   0  0  0  0  0  0  0  0  0  0  0  0
   -0.2858    0.9998    1.6618 H   0  0  0  0  0  0  0  0  0  0  0  0
   -0.1195    2.6102    1.0359 H   0  0  0  0  0  0  0  0  0  0  0  0
    1.9839    1.2442    0.9772 H   0  0  0  0  0  0  0  0  0  0  0  0
    1.5566    2.1126   -0.4641 H   0  0  0  0  0  0  0  0  0  0  0  0
  1  2  1  0
  2  3  1  0
  3  4  1  0
  4  5  1  0
  5  6  1  0
  6  7  1  0
  7  8  1  0
  8  9  1  0
  9  2  1  0
  1 10  1  0
  2 11  1  0
  3 12  1  0
  3 13  1  0
  4 14  1  0
  4 15  1  0
  5 16  1  0
  5 17  1  0
  6 18  1  0
  6 19  1  0
  7 20  1  0
  7 21  1  0
  8 22  1  0
  8 23  1  0
  9 24  1  0
  9 25  1  0
M  END
>  <Energy>  (3) 
17.77539637633623

>  <Real charge>  (3) 
0

>  <Mult>  (3) 
1

$$$$
mol_310 59
     RDKit          3D

 25 25  0  0  0  0  0  0  0  0999 V2000
    2.5049   -1.1597    0.8388 O   0  0  0  0  0  0  0  0  0  0  0  0
    1.6630   -0.5458   -0.1457 C   0  0  0  0  0  0  0  0  0  0  0  0
    1.3153    0.8569    0.3524 C   0  0  0  0  0  0  0  0  0  0  0  0
    0.4836    1.7238   -0.5863 C   0  0  0  0  0  0  0  0  0  0  0  0
   -0.9443    1.2746   -0.8967 C   0  0  0  0  0  0  0  0  0  0  0  0
   -1.7424    0.7526    0.2982 C   0  0  0  0  0  0  0  0  0  0  0  0
   -1.8494   -0.7723    0.3741 C   0  0  0  0  0  0  0  0  0  0  0  0
   -0.5659   -1.5376    0.7044 C   0  0  0  0  0  0  0  0  0  0  0  0
    0.4958   -1.5035   -0.3996 C   0  0  0  0  0  0  0  0  0  0  0  0
    3.2971   -0.6043    0.9360 H   0  0  0  0  0  0  0  0  0  0  0  0
    2.2569   -0.4740   -1.0645 H   0  0  0  0  0  0  0  0  0  0  0  0
    0.8568    0.8092    1.3466 H   0  0  0  0  0  0  0  0  0  0  0  0
    2.2615    1.3873    0.5321 H   0  0  0  0  0  0  0  0  0  0  0  0
    0.4258    2.7238   -0.1357 H   0  0  0  0  0  0  0  0  0  0  0  0
    1.0226    1.8564   -1.5326 H   0  0  0  0  0  0  0  0  0  0  0  0
   -1.4688    2.1537   -1.2956 H   0  0  0  0  0  0  0  0  0  0  0  0
   -0.9505    0.5535   -1.7199 H   0  0  0  0  0  0  0  0  0  0  0  0
   -1.3727    1.1640    1.2435 H   0  0  0  0  0  0  0  0  0  0  0  0
   -2.7686    1.1306    0.1949 H   0  0  0  0  0  0  0  0  0  0  0  0
   -2.5844   -1.0119    1.1537 H   0  0  0  0  0  0  0  0  0  0  0  0
   -2.2722   -1.1560   -0.5630 H   0  0  0  0  0  0  0  0  0  0  0  0
   -0.8571   -2.5872    0.8463 H   0  0  0  0  0  0  0  0  0  0  0  0
   -0.1614   -1.2122    1.6690 H   0  0  0  0  0  0  0  0  0  0  0  0
    0.9152   -2.5164   -0.4761 H   0  0  0  0  0  0  0  0  0  0  0  0
    0.0393   -1.3055   -1.3737 H   0  0  0  0  0  0  0  0  0  0  0  0
  1  2  1  0
  2  3  1  0
  3  4  1  0
  4  5  1  0
  5  6  1  0
  6  7  1  0
  7  8  1  0
  8  9  1  0
  9  2  1  0
  1 10  1  0
  2 11  1  0
  3 12  1  0
  3 13  1  0
  4 14  1  0
  4 15  1  0
  5 16  1  0
  5 17  1  0
  6 18  1  0
  6 19  1  0
  7 20  1  0
  7 21  1  0
  8 22  1  0
  8 23  1  0
  9 24  1  0
  9 25  1  0
M  END
>  <Energy>  (4) 
17.942811860987717

>  <Real charge>  (4) 
0

>  <Mult>  (4) 
1

$$$$
mol_310 20
     RDKit          3D

 25 25  0  0  0  0  0  0  0  0999 V2000
   -2.5775    0.5526    0.9882 O   0  0  0  0  0  0  0  0  0  0  0  0
   -1.6397    0.7545   -0.0695 C   0  0  0  0  0  0  0  0  0  0  0  0
   -1.3728   -0.5721   -0.7821 C   0  0  0  0  0  0  0  0  0  0  0  0
   -0.7476   -1.6955    0.0438 C   0  0  0  0  0  0  0  0  0  0  0  0
    0.6449   -1.4521    0.6246 C   0  0  0  0  0  0  0  0  0  0  0  0
    1.6523   -0.8325   -0.3445 C   0  0  0  0  0  0  0  0  0  0  0  0
    1.9109    0.6600   -0.1268 C   0  0  0  0  0  0  0  0  0  0  0  0
    0.7632    1.6139   -0.4645 C   0  0  0  0  0  0  0  0  0  0  0  0
   -0.4338    1.5209    0.4804 C   0  0  0  0  0  0  0  0  0  0  0  0
   -2.1373    0.0385    1.6861 H   0  0  0  0  0  0  0  0  0  0  0  0
   -2.1418    1.4076   -0.7942 H   0  0  0  0  0  0  0  0  0  0  0  0
   -2.3415   -0.9534   -1.1345 H   0  0  0  0  0  0  0  0  0  0  0  0
   -0.7830   -0.4008   -1.6886 H   0  0  0  0  0  0  0  0  0  0  0  0
   -1.4240   -1.9766    0.8601 H   0  0  0  0  0  0  0  0  0  0  0  0
   -0.6889   -2.5797   -0.6052 H   0  0  0  0  0  0  0  0  0  0  0  0
    0.5803   -0.8752    1.5522 H   0  0  0  0  0  0  0  0  0  0  0  0
    1.0314   -2.4332    0.9327 H   0  0  0  0  0  0  0  0  0  0  0  0
    1.3846   -1.0307   -1.3881 H   0  0  0  0  0  0  0  0  0  0  0  0
    2.6132   -1.3407   -0.1859 H   0  0  0  0  0  0  0  0  0  0  0  0
    2.2325    0.8275    0.9090 H   0  0  0  0  0  0  0  0  0  0  0  0
    2.7668    0.9403   -0.7547 H   0  0  0  0  0  0  0  0  0  0  0  0
    1.1683    2.6314   -0.3811 H   0  0  0  0  0  0  0  0  0  0  0  0
    0.4619    1.5025   -1.5117 H   0  0  0  0  0  0  0  0  0  0  0  0
   -0.7841    2.5427    0.6864 H   0  0  0  0  0  0  0  0  0  0  0  0
   -0.1383    1.1501    1.4677 H   0  0  0  0  0  0  0  0  0  0  0  0
  1  2  1  0
  2  3  1  0
  3  4  1  0
  4  5  1  0
  5  6  1  0
  6  7  1  0
  7  8  1  0
  8  9  1  0
  9  2  1  0
  1 10  1  0
  2 11  1  0
  3 12  1  0
  3 13  1  0
  4 14  1  0
  4 15  1  0
  5 16  1  0
  5 17  1  0
  6 18  1  0
  6 19  1  0
  7 20  1  0
  7 21  1  0
  8 22  1  0
  8 23  1  0
  9 24  1  0
  9 25  1  0
M  END
>  <Energy>  (5) 
17.943560592247767

>  <Real charge>  (5) 
0

>  <Mult>  (5) 
1

$$$$
mol_310 5
     RDKit          3D

 25 25  0  0  0  0  0  0  0  0999 V2000
   -1.3985   -2.3353   -1.0931 O   0  0  0  0  0  0  0  0  0  0  0  0
   -1.0161   -0.9540   -1.1277 C   0  0  0  0  0  0  0  0  0  0  0  0
   -1.6273   -0.2765    0.0981 C   0  0  0  0  0  0  0  0  0  0  0  0
   -1.4743    1.2384    0.1778 C   0  0  0  0  0  0  0  0  0  0  0  0
   -0.0601    1.8045    0.3014 C   0  0  0  0  0  0  0  0  0  0  0  0
    0.8494    1.0767    1.2913 C   0  0  0  0  0  0  0  0  0  0  0  0
    1.8687    0.1362    0.6446 C   0  0  0  0  0  0  0  0  0  0  0  0
    1.3157   -1.1310   -0.0118 C   0  0  0  0  0  0  0  0  0  0  0  0
    0.5061   -0.8840   -1.2890 C   0  0  0  0  0  0  0  0  0  0  0  0
   -1.0232   -2.7313   -0.2885 H   0  0  0  0  0  0  0  0  0  0  0  0
   -1.4763   -0.5402   -2.0323 H   0  0  0  0  0  0  0  0  0  0  0  0
   -2.7041   -0.4982    0.0941 H   0  0  0  0  0  0  0  0  0  0  0  0
   -1.2715   -0.7503    1.0198 H   0  0  0  0  0  0  0  0  0  0  0  0
   -1.9603    1.6987   -0.6916 H   0  0  0  0  0  0  0  0  0  0  0  0
   -2.0470    1.5770    1.0517 H   0  0  0  0  0  0  0  0  0  0  0  0
   -0.1676    2.8437    0.6414 H   0  0  0  0  0  0  0  0  0  0  0  0
    0.4105    1.8830   -0.6836 H   0  0  0  0  0  0  0  0  0  0  0  0
    0.2727    0.5534    2.0617 H   0  0  0  0  0  0  0  0  0  0  0  0
    1.4283    1.8418    1.8261 H   0  0  0  0  0  0  0  0  0  0  0  0
    2.5685   -0.1793    1.4296 H   0  0  0  0  0  0  0  0  0  0  0  0
    2.4698    0.6937   -0.0849 H   0  0  0  0  0  0  0  0  0  0  0  0
    2.1855   -1.7414   -0.2900 H   0  0  0  0  0  0  0  0  0  0  0  0
    0.7595   -1.7289    0.7176 H   0  0  0  0  0  0  0  0  0  0  0  0
    0.7943   -1.6606   -2.0111 H   0  0  0  0  0  0  0  0  0  0  0  0
    0.7975    0.0639   -1.7514 H   0  0  0  0  0  0  0  0  0  0  0  0
  1  2  1  0
  2  3  1  0
  3  4  1  0
  4  5  1  0
  5  6  1  0
  6  7  1  0
  7  8  1  0
  8  9  1  0
  9  2  1  0
  1 10  1  0
  2 11  1  0
  3 12  1  0
  3 13  1  0
  4 14  1  0
  4 15  1  0
  5 16  1  0
  5 17  1  0
  6 18  1  0
  6 19  1  0
  7 20  1  0
  7 21  1  0
  8 22  1  0
  8 23  1  0
  9 24  1  0
  9 25  1  0
M  END
>  <Energy>  (6) 
18.115093751818733

>  <Real charge>  (6) 
0

>  <Mult>  (6) 
1

$$$$
mol_310 142
     RDKit          3D

 25 25  0  0  0  0  0  0  0  0999 V2000
    2.9104    0.8332   -0.2144 O   0  0  0  0  0  0  0  0  0  0  0  0
    1.5717    0.4410    0.1259 C   0  0  0  0  0  0  0  0  0  0  0  0
    0.6335    1.3475   -0.6775 C   0  0  0  0  0  0  0  0  0  0  0  0
   -0.6239    1.8099    0.0601 C   0  0  0  0  0  0  0  0  0  0  0  0
   -1.3755    0.7846    0.9017 C   0  0  0  0  0  0  0  0  0  0  0  0
   -2.0133   -0.3690    0.1347 C   0  0  0  0  0  0  0  0  0  0  0  0
   -1.0777   -1.3302   -0.5970 C   0  0  0  0  0  0  0  0  0  0  0  0
    0.1566   -1.7602    0.1945 C   0  0  0  0  0  0  0  0  0  0  0  0
    1.4512   -1.0519   -0.2063 C   0  0  0  0  0  0  0  0  0  0  0  0
    3.5177    0.3194    0.3449 H   0  0  0  0  0  0  0  0  0  0  0  0
    1.4654    0.6130    1.2018 H   0  0  0  0  0  0  0  0  0  0  0  0
    0.3603    0.8738   -1.6262 H   0  0  0  0  0  0  0  0  0  0  0  0
    1.1737    2.2556   -0.9802 H   0  0  0  0  0  0  0  0  0  0  0  0
   -0.3310    2.6276    0.7322 H   0  0  0  0  0  0  0  0  0  0  0  0
   -1.3119    2.2569   -0.6684 H   0  0  0  0  0  0  0  0  0  0  0  0
   -2.1870    1.3191    1.4142 H   0  0  0  0  0  0  0  0  0  0  0  0
   -0.7379    0.4066    1.7071 H   0  0  0  0  0  0  0  0  0  0  0  0
   -2.7398    0.0287   -0.5849 H   0  0  0  0  0  0  0  0  0  0  0  0
   -2.5987   -0.9551    0.8557 H   0  0  0  0  0  0  0  0  0  0  0  0
   -1.6665   -2.2297   -0.8232 H   0  0  0  0  0  0  0  0  0  0  0  0
   -0.7992   -0.9277   -1.5758 H   0  0  0  0  0  0  0  0  0  0  0  0
   -0.0075   -1.6854    1.2749 H   0  0  0  0  0  0  0  0  0  0  0  0
    0.3141   -2.8292   -0.0038 H   0  0  0  0  0  0  0  0  0  0  0  0
    2.2801   -1.5765    0.2891 H   0  0  0  0  0  0  0  0  0  0  0  0
    1.6351   -1.2019   -1.2789 H   0  0  0  0  0  0  0  0  0  0  0  0
  1  2  1  0
  2  3  1  0
  3  4  1  0
  4  5  1  0
  5  6  1  0
  6  7  1  0
  7  8  1  0
  8  9  1  0
  9  2  1  0
  1 10  1  0
  2 11  1  0
  3 12  1  0
  3 13  1  0
  4 14  1  0
  4 15  1  0
  5 16  1  0
  5 17  1  0
  6 18  1  0
  6 19  1  0
  7 20  1  0
  7 21  1  0
  8 22  1  0
  8 23  1  0
  9 24  1  0
  9 25  1  0
M  END
>  <Energy>  (7) 
18.30850194148696

>  <Real charge>  (7) 
0

>  <Mult>  (7) 
1

$$$$
mol_310 158
     RDKit          3D

 25 25  0  0  0  0  0  0  0  0999 V2000
    1.9412   -1.6330   -0.6948 O   0  0  0  0  0  0  0  0  0  0  0  0
    1.3288   -1.1435    0.4989 C   0  0  0  0  0  0  0  0  0  0  0  0
   -0.1183   -1.6485    0.5558 C   0  0  0  0  0  0  0  0  0  0  0  0
   -1.0128   -1.2394   -0.6183 C   0  0  0  0  0  0  0  0  0  0  0  0
   -1.9738   -0.0856   -0.3302 C   0  0  0  0  0  0  0  0  0  0  0  0
   -1.4240    1.1178    0.4288 C   0  0  0  0  0  0  0  0  0  0  0  0
   -0.3323    1.9138   -0.2793 C   0  0  0  0  0  0  0  0  0  0  0  0
    0.9954    1.2061   -0.5520 C   0  0  0  0  0  0  0  0  0  0  0  0
    1.5376    0.3727    0.6126 C   0  0  0  0  0  0  0  0  0  0  0  0
    2.8732   -1.3563   -0.6827 H   0  0  0  0  0  0  0  0  0  0  0  0
    1.8654   -1.6125    1.3333 H   0  0  0  0  0  0  0  0  0  0  0  0
   -0.5780   -1.3892    1.5157 H   0  0  0  0  0  0  0  0  0  0  0  0
   -0.0649   -2.7462    0.5356 H   0  0  0  0  0  0  0  0  0  0  0  0
   -1.6353   -2.1043   -0.8859 H   0  0  0  0  0  0  0  0  0  0  0  0
   -0.4272   -1.0326   -1.5185 H   0  0  0  0  0  0  0  0  0  0  0  0
   -2.4107    0.2508   -1.2787 H   0  0  0  0  0  0  0  0  0  0  0  0
   -2.8107   -0.4862    0.2574 H   0  0  0  0  0  0  0  0  0  0  0  0
   -1.0953    0.8220    1.4302 H   0  0  0  0  0  0  0  0  0  0  0  0
   -2.2648    1.8036    0.6007 H   0  0  0  0  0  0  0  0  0  0  0  0
   -0.1199    2.7959    0.3395 H   0  0  0  0  0  0  0  0  0  0  0  0
   -0.7225    2.3033   -1.2279 H   0  0  0  0  0  0  0  0  0  0  0  0
    0.9336    0.6193   -1.4729 H   0  0  0  0  0  0  0  0  0  0  0  0
    1.7289    1.9934   -0.7745 H   0  0  0  0  0  0  0  0  0  0  0  0
    2.6238    0.5385    0.6332 H   0  0  0  0  0  0  0  0  0  0  0  0
    1.1629    0.7400    1.5742 H   0  0  0  0  0  0  0  0  0  0  0  0
  1  2  1  0
  2  3  1  0
  3  4  1  0
  4  5  1  0
  5  6  1  0
  6  7  1  0
  7  8  1  0
  8  9  1  0
  9  2  1  0
  1 10  1  0
  2 11  1  0
  3 12  1  0
  3 13  1  0
  4 14  1  0
  4 15  1  0
  5 16  1  0
  5 17  1  0
  6 18  1  0
  6 19  1  0
  7 20  1  0
  7 21  1  0
  8 22  1  0
  8 23  1  0
  9 24  1  0
  9 25  1  0
M  END
>  <Energy>  (8) 
18.356134448047797

>  <Real charge>  (8) 
0

>  <Mult>  (8) 
1

$$$$
mol_310 179
     RDKit          3D

 25 25  0  0  0  0  0  0  0  0999 V2000
    2.8156   -0.7124    0.4758 O   0  0  0  0  0  0  0  0  0  0  0  0
    1.4395   -0.3713    0.2520 C   0  0  0  0  0  0  0  0  0  0  0  0
    1.4128    1.0760   -0.2480 C   0  0  0  0  0  0  0  0  0  0  0  0
    0.1304    1.5798   -0.9003 C   0  0  0  0  0  0  0  0  0  0  0  0
   -1.1086    1.6136   -0.0119 C   0  0  0  0  0  0  0  0  0  0  0  0
   -1.6553    0.2788    0.4943 C   0  0  0  0  0  0  0  0  0  0  0  0
   -1.6833   -0.8494   -0.5367 C   0  0  0  0  0  0  0  0  0  0  0  0
   -0.5539   -1.8719   -0.3933 C   0  0  0  0  0  0  0  0  0  0  0  0
    0.8646   -1.4005   -0.7265 C   0  0  0  0  0  0  0  0  0  0  0  0
    3.1701   -0.0844    1.1284 H   0  0  0  0  0  0  0  0  0  0  0  0
    0.9561   -0.4530    1.2290 H   0  0  0  0  0  0  0  0  0  0  0  0
    2.2285    1.2094   -0.9725 H   0  0  0  0  0  0  0  0  0  0  0  0
    1.6769    1.7368    0.5885 H   0  0  0  0  0  0  0  0  0  0  0  0
    0.3196    2.6104   -1.2304 H   0  0  0  0  0  0  0  0  0  0  0  0
   -0.0719    1.0250   -1.8220 H   0  0  0  0  0  0  0  0  0  0  0  0
   -0.9221    2.2658    0.8504 H   0  0  0  0  0  0  0  0  0  0  0  0
   -1.9060    2.1028   -0.5874 H   0  0  0  0  0  0  0  0  0  0  0  0
   -1.1317   -0.0315    1.4038 H   0  0  0  0  0  0  0  0  0  0  0  0
   -2.6878    0.4664    0.8196 H   0  0  0  0  0  0  0  0  0  0  0  0
   -2.6213   -1.4017   -0.3891 H   0  0  0  0  0  0  0  0  0  0  0  0
   -1.7305   -0.4632   -1.5605 H   0  0  0  0  0  0  0  0  0  0  0  0
   -0.7853   -2.7106   -1.0632 H   0  0  0  0  0  0  0  0  0  0  0  0
   -0.5676   -2.2891    0.6216 H   0  0  0  0  0  0  0  0  0  0  0  0
    0.9069   -1.0321   -1.7579 H   0  0  0  0  0  0  0  0  0  0  0  0
    1.5041   -2.2939   -0.7174 H   0  0  0  0  0  0  0  0  0  0  0  0
  1  2  1  0
  2  3  1  0
  3  4  1  0
  4  5  1  0
  5  6  1  0
  6  7  1  0
  7  8  1  0
  8  9  1  0
  9  2  1  0
  1 10  1  0
  2 11  1  0
  3 12  1  0
  3 13  1  0
  4 14  1  0
  4 15  1  0
  5 16  1  0
  5 17  1  0
  6 18  1  0
  6 19  1  0
  7 20  1  0
  7 21  1  0
  8 22  1  0
  8 23  1  0
  9 24  1  0
  9 25  1  0
M  END
>  <Energy>  (9) 
18.417687783011953

>  <Real charge>  (9) 
0

>  <Mult>  (9) 
1

$$$$
mol_310 89
     RDKit          3D

 25 25  0  0  0  0  0  0  0  0999 V2000
    2.7753   -0.9439    0.5482 O   0  0  0  0  0  0  0  0  0  0  0  0
    1.4223   -0.4948    0.3853 C   0  0  0  0  0  0  0  0  0  0  0  0
    0.6375   -1.7015   -0.1347 C   0  0  0  0  0  0  0  0  0  0  0  0
   -0.7495   -1.4504   -0.7156 C   0  0  0  0  0  0  0  0  0  0  0  0
   -1.7886   -0.8782    0.2428 C   0  0  0  0  0  0  0  0  0  0  0  0
   -1.5508    0.5286    0.7920 C   0  0  0  0  0  0  0  0  0  0  0  0
   -1.0358    1.5498   -0.2222 C   0  0  0  0  0  0  0  0  0  0  0  0
    0.4639    1.8403   -0.1294 C   0  0  0  0  0  0  0  0  0  0  0  0
    1.4209    0.7207   -0.5488 C   0  0  0  0  0  0  0  0  0  0  0  0
    3.2725   -0.2243    0.9733 H   0  0  0  0  0  0  0  0  0  0  0  0
    1.0809   -0.2259    1.3884 H   0  0  0  0  0  0  0  0  0  0  0  0
    1.2363   -2.2007   -0.9096 H   0  0  0  0  0  0  0  0  0  0  0  0
    0.5635   -2.4409    0.6741 H   0  0  0  0  0  0  0  0  0  0  0  0
   -0.6788   -0.8349   -1.6181 H   0  0  0  0  0  0  0  0  0  0  0  0
   -1.1320   -2.4184   -1.0670 H   0  0  0  0  0  0  0  0  0  0  0  0
   -2.7489   -0.8686   -0.2901 H   0  0  0  0  0  0  0  0  0  0  0  0
   -1.9247   -1.5658    1.0868 H   0  0  0  0  0  0  0  0  0  0  0  0
   -0.9070    0.4929    1.6763 H   0  0  0  0  0  0  0  0  0  0  0  0
   -2.5192    0.8849    1.1695 H   0  0  0  0  0  0  0  0  0  0  0  0
   -1.5481    2.4994   -0.0162 H   0  0  0  0  0  0  0  0  0  0  0  0
   -1.3177    1.2828   -1.2464 H   0  0  0  0  0  0  0  0  0  0  0  0
    0.7098    2.1638    0.8900 H   0  0  0  0  0  0  0  0  0  0  0  0
    0.6697    2.7048   -0.7742 H   0  0  0  0  0  0  0  0  0  0  0  0
    2.4284    1.1576   -0.5704 H   0  0  0  0  0  0  0  0  0  0  0  0
    1.2202    0.4226   -1.5843 H   0  0  0  0  0  0  0  0  0  0  0  0
  1  2  1  0
  2  3  1  0
  3  4  1  0
  4  5  1  0
  5  6  1  0
  6  7  1  0
  7  8  1  0
  8  9  1  0
  9  2  1  0
  1 10  1  0
  2 11  1  0
  3 12  1  0
  3 13  1  0
  4 14  1  0
  4 15  1  0
  5 16  1  0
  5 17  1  0
  6 18  1  0
  6 19  1  0
  7 20  1  0
  7 21  1  0
  8 22  1  0
  8 23  1  0
  9 24  1  0
  9 25  1  0
M  END
>  <Energy>  (10) 
18.472204648626512

>  <Real charge>  (10) 
0

>  <Mult>  (10) 
1

$$$$
