mol_167 12
     RDKit          3D

 22 23  0  0  0  0  0  0  0  0999 V2000
   -5.2244   -0.0805    0.1637 Cl  0  0  0  0  0  0  0  0  0  0  0  0
   -3.5050   -0.0587    0.1105 C   0  0  0  0  0  0  0  0  0  0  0  0
   -2.7742   -0.1801    1.2897 C   0  0  0  0  0  0  0  0  0  0  0  0
   -1.3773   -0.1611    1.2453 C   0  0  0  0  0  0  0  0  0  0  0  0
   -0.6992   -0.0234    0.0231 C   0  0  0  0  0  0  0  0  0  0  0  0
   -1.4551    0.1005   -1.1540 C   0  0  0  0  0  0  0  0  0  0  0  0
   -2.8521    0.0818   -1.1117 C   0  0  0  0  0  0  0  0  0  0  0  0
    0.7694    0.0051   -0.0237 C   0  0  0  0  0  0  0  0  0  0  0  0
    1.4229    1.2409   -0.1886 C   0  0  0  0  0  0  0  0  0  0  0  0
    2.8169    1.3213   -0.2365 C   0  0  0  0  0  0  0  0  0  0  0  0
    3.5854    0.1666   -0.1214 C   0  0  0  0  0  0  0  0  0  0  0  0
    2.9602   -1.0690    0.0405 C   0  0  0  0  0  0  0  0  0  0  0  0
    1.5638   -1.1517    0.0889 C   0  0  0  0  0  0  0  0  0  0  0  0
    0.8654   -2.7246    0.2764 Cl  0  0  0  0  0  0  0  0  0  0  0  0
   -3.2813   -0.2914    2.2441 H   0  0  0  0  0  0  0  0  0  0  0  0
   -0.8161   -0.2583    2.1729 H   0  0  0  0  0  0  0  0  0  0  0  0
   -0.9552    0.2054   -2.1152 H   0  0  0  0  0  0  0  0  0  0  0  0
   -3.4205    0.1744   -2.0330 H   0  0  0  0  0  0  0  0  0  0  0  0
    0.8392    2.1561   -0.2763 H   0  0  0  0  0  0  0  0  0  0  0  0
    3.3005    2.2871   -0.3626 H   0  0  0  0  0  0  0  0  0  0  0  0
    4.6703    0.2271   -0.1587 H   0  0  0  0  0  0  0  0  0  0  0  0
    3.5660   -1.9677    0.1267 H   0  0  0  0  0  0  0  0  0  0  0  0
  1  2  1  0
  2  3  2  0
  3  4  1  0
  4  5  2  0
  5  6  1  0
  6  7  2  0
  5  8  1  0
  8  9  2  0
  9 10  1  0
 10 11  2  0
 11 12  1  0
 12 13  2  0
 13 14  1  0
  7  2  1  0
 13  8  1  0
  3 15  1  0
  4 16  1  0
  6 17  1  0
  7 18  1  0
  9 19  1  0
 10 20  1  0
 11 21  1  0
 12 22  1  0
M  END
>  <Energy>  (1) 
45.0480697877469

>  <Real charge>  (1) 
0

>  <Mult>  (1) 
1

$$$$
