mol_173 356
     RDKit          3D

 55 58  0  0  0  0  0  0  0  0999 V2000
   -4.4461   -0.5338   -1.9573 C   0  0  0  0  0  0  0  0  0  0  0  0
   -4.3885   -0.6277   -0.4540 C   0  0  0  0  0  0  0  0  0  0  0  0
   -5.4289   -0.6592    0.2040 O   0  0  0  0  0  0  0  0  0  0  0  0
   -3.0039   -0.6245    0.1958 C   0  0  0  0  0  0  0  0  0  0  0  0
   -3.0073   -1.2679    1.5983 C   0  0  0  0  0  0  0  0  0  0  0  0
   -2.1544   -0.3719    2.4960 C   0  0  0  0  0  0  0  0  0  0  0  0
   -1.3546    0.5227    1.5374 C   0  0  0  0  0  0  0  0  0  0  0  0
   -0.0255   -0.1651    1.1003 C   0  0  0  0  0  0  0  0  0  0  0  0
    0.9821   -0.1308    2.2685 C   0  0  0  0  0  0  0  0  0  0  0  0
    2.3878   -0.4594    1.8815 C   0  0  0  0  0  0  0  0  0  0  0  0
    2.8383   -0.5299    0.6175 C   0  0  0  0  0  0  0  0  0  0  0  0
    4.2846   -0.9086    0.3464 C   0  0  0  0  0  0  0  0  0  0  0  0
    4.9716    0.0619   -0.6179 C   0  0  0  0  0  0  0  0  0  0  0  0
    5.2211    1.3131    0.0254 O   0  0  0  0  0  0  0  0  0  0  0  0
    4.1456    0.2848   -1.8813 C   0  0  0  0  0  0  0  0  0  0  0  0
    2.7098    0.7143   -1.5652 C   0  0  0  0  0  0  0  0  0  0  0  0
    1.9475   -0.2376   -0.5949 C   0  0  0  0  0  0  0  0  0  0  0  0
    1.6604   -1.5797   -1.3106 C   0  0  0  0  0  0  0  0  0  0  0  0
    0.6049    0.4814   -0.1555 C   0  0  0  0  0  0  0  0  0  0  0  0
   -0.4320    0.5733   -1.2880 C   0  0  0  0  0  0  0  0  0  0  0  0
   -1.6697    1.3472   -0.8564 C   0  0  0  0  0  0  0  0  0  0  0  0
   -2.3680    0.7795    0.3903 C   0  0  0  0  0  0  0  0  0  0  0  0
   -3.4263    1.8205    0.8361 C   0  0  0  0  0  0  0  0  0  0  0  0
   -3.6093   -1.0762   -2.4041 H   0  0  0  0  0  0  0  0  0  0  0  0
   -4.4205    0.5141   -2.2622 H   0  0  0  0  0  0  0  0  0  0  0  0
   -5.3738   -0.9914   -2.3128 H   0  0  0  0  0  0  0  0  0  0  0  0
   -2.3675   -1.2590   -0.4324 H   0  0  0  0  0  0  0  0  0  0  0  0
   -4.0047   -1.3961    2.0302 H   0  0  0  0  0  0  0  0  0  0  0  0
   -2.5615   -2.2684    1.5390 H   0  0  0  0  0  0  0  0  0  0  0  0
   -2.8070    0.2441    3.1261 H   0  0  0  0  0  0  0  0  0  0  0  0
   -1.5365   -0.9625    3.1772 H   0  0  0  0  0  0  0  0  0  0  0  0
   -1.1059    1.4698    2.0337 H   0  0  0  0  0  0  0  0  0  0  0  0
   -0.2364   -1.2179    0.8704 H   0  0  0  0  0  0  0  0  0  0  0  0
    0.9913    0.8609    2.7376 H   0  0  0  0  0  0  0  0  0  0  0  0
    0.6696   -0.8428    3.0405 H   0  0  0  0  0  0  0  0  0  0  0  0
    3.0651   -0.6591    2.7105 H   0  0  0  0  0  0  0  0  0  0  0  0
    4.8536   -0.9380    1.2842 H   0  0  0  0  0  0  0  0  0  0  0  0
    4.3113   -1.9211   -0.0728 H   0  0  0  0  0  0  0  0  0  0  0  0
    5.9513   -0.3411   -0.8972 H   0  0  0  0  0  0  0  0  0  0  0  0
    4.4072    1.5723    0.4927 H   0  0  0  0  0  0  0  0  0  0  0  0
    4.1333   -0.6322   -2.4814 H   0  0  0  0  0  0  0  0  0  0  0  0
    4.6126    1.0650   -2.4945 H   0  0  0  0  0  0  0  0  0  0  0  0
    2.7418    1.7261   -1.1391 H   0  0  0  0  0  0  0  0  0  0  0  0
    2.1693    0.8028   -2.5151 H   0  0  0  0  0  0  0  0  0  0  0  0
    2.5761   -2.1327   -1.5445 H   0  0  0  0  0  0  0  0  0  0  0  0
    1.1466   -1.4262   -2.2655 H   0  0  0  0  0  0  0  0  0  0  0  0
    1.0402   -2.2413   -0.6968 H   0  0  0  0  0  0  0  0  0  0  0  0
    0.8640    1.5149    0.1238 H   0  0  0  0  0  0  0  0  0  0  0  0
   -0.0017    1.0829   -2.1566 H   0  0  0  0  0  0  0  0  0  0  0  0
   -0.7322   -0.4223   -1.6282 H   0  0  0  0  0  0  0  0  0  0  0  0
   -2.3679    1.3975   -1.6984 H   0  0  0  0  0  0  0  0  0  0  0  0
   -1.3644    2.3840   -0.6586 H   0  0  0  0  0  0  0  0  0  0  0  0
   -4.1021    2.0755    0.0119 H   0  0  0  0  0  0  0  0  0  0  0  0
   -2.9458    2.7510    1.1601 H   0  0  0  0  0  0  0  0  0  0  0  0
   -4.0447    1.4650    1.6661 H   0  0  0  0  0  0  0  0  0  0  0  0
  1  2  1  0
  2  3  2  0
  2  4  1  0
  4  5  1  0
  5  6  1  0
  6  7  1  0
  7  8  1  0
  8  9  1  0
  9 10  1  0
 10 11  2  0
 11 12  1  0
 12 13  1  0
 13 14  1  0
 13 15  1  0
 15 16  1  0
 16 17  1  0
 17 18  1  0
 17 19  1  0
 19 20  1  0
 20 21  1  0
 21 22  1  0
 22 23  1  0
 17 11  1  0
 19  8  1  0
 22  4  1  0
 22  7  1  0
  1 24  1  0
  1 25  1  0
  1 26  1  0
  4 27  1  0
  5 28  1  0
  5 29  1  0
  6 30  1  0
  6 31  1  0
  7 32  1  0
  8 33  1  0
  9 34  1  0
  9 35  1  0
 10 36  1  0
 12 37  1  0
 12 38  1  0
 13 39  1  0
 14 40  1  0
 15 41  1  0
 15 42  1  0
 16 43  1  0
 16 44  1  0
 18 45  1  0
 18 46  1  0
 18 47  1  0
 19 48  1  0
 20 49  1  0
 20 50  1  0
 21 51  1  0
 21 52  1  0
 23 53  1  0
 23 54  1  0
 23 55  1  0
M  END
>  <Energy>  (1) 
82.50681291708538

>  <Real charge>  (1) 
0

>  <Mult>  (1) 
1

$$$$
mol_173 160
     RDKit          3D

 55 58  0  0  0  0  0  0  0  0999 V2000
   -5.4131    2.6267   -0.9720 C   0  0  0  0  0  0  0  0  0  0  0  0
   -4.1854    1.9166   -1.4891 C   0  0  0  0  0  0  0  0  0  0  0  0
   -3.7326    2.1978   -2.5979 O   0  0  0  0  0  0  0  0  0  0  0  0
   -3.6076    0.8035   -0.6140 C   0  0  0  0  0  0  0  0  0  0  0  0
   -3.4351    1.2251    0.8493 C   0  0  0  0  0  0  0  0  0  0  0  0
   -2.2952    0.3744    1.4090 C   0  0  0  0  0  0  0  0  0  0  0  0
   -1.8596   -0.5636    0.2695 C   0  0  0  0  0  0  0  0  0  0  0  0
   -0.3950   -1.0567    0.3352 C   0  0  0  0  0  0  0  0  0  0  0  0
   -0.0919   -1.7082    1.6959 C   0  0  0  0  0  0  0  0  0  0  0  0
    1.3589   -1.9812    1.9286 C   0  0  0  0  0  0  0  0  0  0  0  0
    2.3607   -1.4772    1.1876 C   0  0  0  0  0  0  0  0  0  0  0  0
    3.7975   -1.8340    1.5097 C   0  0  0  0  0  0  0  0  0  0  0  0
    4.6868   -0.5954    1.6189 C   0  0  0  0  0  0  0  0  0  0  0  0
    6.0434   -1.0065    1.7752 O   0  0  0  0  0  0  0  0  0  0  0  0
    4.5635    0.2799    0.3753 C   0  0  0  0  0  0  0  0  0  0  0  0
    3.1098    0.6727    0.1136 C   0  0  0  0  0  0  0  0  0  0  0  0
    2.1265   -0.5317    0.0019 C   0  0  0  0  0  0  0  0  0  0  0  0
    2.4261   -1.3181   -1.2980 C   0  0  0  0  0  0  0  0  0  0  0  0
    0.6467    0.0385    0.0067 C   0  0  0  0  0  0  0  0  0  0  0  0
    0.2720    0.7753   -1.2942 C   0  0  0  0  0  0  0  0  0  0  0  0
   -1.1561    1.3189   -1.2781 C   0  0  0  0  0  0  0  0  0  0  0  0
   -2.2205    0.2273   -1.0126 C   0  0  0  0  0  0  0  0  0  0  0  0
   -2.3523   -0.7114   -2.2242 C   0  0  0  0  0  0  0  0  0  0  0  0
   -5.8364    3.2498   -1.7652 H   0  0  0  0  0  0  0  0  0  0  0  0
   -6.1645    1.8921   -0.6718 H   0  0  0  0  0  0  0  0  0  0  0  0
   -5.1486    3.2668   -0.1277 H   0  0  0  0  0  0  0  0  0  0  0  0
   -4.3487   -0.0088   -0.6460 H   0  0  0  0  0  0  0  0  0  0  0  0
   -3.1876    2.2889    0.9437 H   0  0  0  0  0  0  0  0  0  0  0  0
   -4.3599    1.0609    1.4138 H   0  0  0  0  0  0  0  0  0  0  0  0
   -1.4823    1.0281    1.7420 H   0  0  0  0  0  0  0  0  0  0  0  0
   -2.6302   -0.1961    2.2823 H   0  0  0  0  0  0  0  0  0  0  0  0
   -2.5050   -1.4537    0.3265 H   0  0  0  0  0  0  0  0  0  0  0  0
   -0.2983   -1.8425   -0.4265 H   0  0  0  0  0  0  0  0  0  0  0  0
   -0.6472   -2.6514    1.7676 H   0  0  0  0  0  0  0  0  0  0  0  0
   -0.4325   -1.0780    2.5245 H   0  0  0  0  0  0  0  0  0  0  0  0
    1.5841   -2.6368    2.7679 H   0  0  0  0  0  0  0  0  0  0  0  0
    3.8707   -2.4022    2.4462 H   0  0  0  0  0  0  0  0  0  0  0  0
    4.1913   -2.5097    0.7402 H   0  0  0  0  0  0  0  0  0  0  0  0
    4.4085   -0.0204    2.5106 H   0  0  0  0  0  0  0  0  0  0  0  0
    6.5840   -0.2019    1.8530 H   0  0  0  0  0  0  0  0  0  0  0  0
    5.1727    1.1837    0.5008 H   0  0  0  0  0  0  0  0  0  0  0  0
    4.9879   -0.2366   -0.4945 H   0  0  0  0  0  0  0  0  0  0  0  0
    3.0789    1.2770   -0.8007 H   0  0  0  0  0  0  0  0  0  0  0  0
    2.7890    1.3334    0.9306 H   0  0  0  0  0  0  0  0  0  0  0  0
    1.6873   -2.1072   -1.4734 H   0  0  0  0  0  0  0  0  0  0  0  0
    2.4336   -0.6616   -2.1744 H   0  0  0  0  0  0  0  0  0  0  0  0
    3.4072   -1.8040   -1.2766 H   0  0  0  0  0  0  0  0  0  0  0  0
    0.5916    0.7816    0.8161 H   0  0  0  0  0  0  0  0  0  0  0  0
    0.3789    0.1144   -2.1599 H   0  0  0  0  0  0  0  0  0  0  0  0
    0.9542    1.6164   -1.4590 H   0  0  0  0  0  0  0  0  0  0  0  0
   -1.3390    1.8054   -2.2427 H   0  0  0  0  0  0  0  0  0  0  0  0
   -1.2141    2.1134   -0.5244 H   0  0  0  0  0  0  0  0  0  0  0  0
   -1.4211   -1.2453   -2.4356 H   0  0  0  0  0  0  0  0  0  0  0  0
   -2.6270   -0.1582   -3.1281 H   0  0  0  0  0  0  0  0  0  0  0  0
   -3.1249   -1.4701   -2.0554 H   0  0  0  0  0  0  0  0  0  0  0  0
  1  2  1  0
  2  3  2  0
  2  4  1  0
  4  5  1  0
  5  6  1  0
  6  7  1  0
  7  8  1  0
  8  9  1  0
  9 10  1  0
 10 11  2  0
 11 12  1  0
 12 13  1  0
 13 14  1  0
 13 15  1  0
 15 16  1  0
 16 17  1  0
 17 18  1  0
 17 19  1  0
 19 20  1  0
 20 21  1  0
 21 22  1  0
 22 23  1  0
 17 11  1  0
 19  8  1  0
 22  4  1  0
 22  7  1  0
  1 24  1  0
  1 25  1  0
  1 26  1  0
  4 27  1  0
  5 28  1  0
  5 29  1  0
  6 30  1  0
  6 31  1  0
  7 32  1  0
  8 33  1  0
  9 34  1  0
  9 35  1  0
 10 36  1  0
 12 37  1  0
 12 38  1  0
 13 39  1  0
 14 40  1  0
 15 41  1  0
 15 42  1  0
 16 43  1  0
 16 44  1  0
 18 45  1  0
 18 46  1  0
 18 47  1  0
 19 48  1  0
 20 49  1  0
 20 50  1  0
 21 51  1  0
 21 52  1  0
 23 53  1  0
 23 54  1  0
 23 55  1  0
M  END
>  <Energy>  (2) 
82.69686114430037

>  <Real charge>  (2) 
0

>  <Mult>  (2) 
1

$$$$
mol_173 338
     RDKit          3D

 55 58  0  0  0  0  0  0  0  0999 V2000
   -5.8639   -0.1579    1.4445 C   0  0  0  0  0  0  0  0  0  0  0  0
   -4.6157    0.6379    1.1487 C   0  0  0  0  0  0  0  0  0  0  0  0
   -4.4051    1.6954    1.7415 O   0  0  0  0  0  0  0  0  0  0  0  0
   -3.7026    0.1126    0.0401 C   0  0  0  0  0  0  0  0  0  0  0  0
   -3.4137   -1.3875    0.1636 C   0  0  0  0  0  0  0  0  0  0  0  0
   -2.0558   -1.6187   -0.4990 C   0  0  0  0  0  0  0  0  0  0  0  0
   -1.6014   -0.2504   -1.0370 C   0  0  0  0  0  0  0  0  0  0  0  0
   -0.0721   -0.0621   -1.1732 C   0  0  0  0  0  0  0  0  0  0  0  0
    0.5500   -1.1882   -2.0164 C   0  0  0  0  0  0  0  0  0  0  0  0
    2.0440   -1.2193   -1.9834 C   0  0  0  0  0  0  0  0  0  0  0  0
    2.8042   -0.5424   -1.1049 C   0  0  0  0  0  0  0  0  0  0  0  0
    4.3164   -0.6489   -1.1672 C   0  0  0  0  0  0  0  0  0  0  0  0
    4.9446   -0.9522    0.1978 C   0  0  0  0  0  0  0  0  0  0  0  0
    4.6432   -2.2838    0.6200 O   0  0  0  0  0  0  0  0  0  0  0  0
    4.4544    0.0223    1.2637 C   0  0  0  0  0  0  0  0  0  0  0  0
    2.9245    0.0483    1.3442 C   0  0  0  0  0  0  0  0  0  0  0  0
    2.2117    0.3532   -0.0078 C   0  0  0  0  0  0  0  0  0  0  0  0
    2.4808    1.8257   -0.4059 C   0  0  0  0  0  0  0  0  0  0  0  0
    0.6610    0.0795    0.1812 C   0  0  0  0  0  0  0  0  0  0  0  0
   -0.0395    1.1237    1.0731 C   0  0  0  0  0  0  0  0  0  0  0  0
   -1.5325    0.8489    1.2480 C   0  0  0  0  0  0  0  0  0  0  0  0
   -2.2975    0.7626   -0.0945 C   0  0  0  0  0  0  0  0  0  0  0  0
   -2.4020    2.1492   -0.7525 C   0  0  0  0  0  0  0  0  0  0  0  0
   -6.5197    0.4212    2.1011 H   0  0  0  0  0  0  0  0  0  0  0  0
   -5.6034   -1.0922    1.9462 H   0  0  0  0  0  0  0  0  0  0  0  0
   -6.3998   -0.3620    0.5141 H   0  0  0  0  0  0  0  0  0  0  0  0
   -4.2568    0.2731   -0.8965 H   0  0  0  0  0  0  0  0  0  0  0  0
   -4.1953   -1.9770   -0.3289 H   0  0  0  0  0  0  0  0  0  0  0  0
   -3.3781   -1.7141    1.2094 H   0  0  0  0  0  0  0  0  0  0  0  0
   -1.3563   -2.0284    0.2372 H   0  0  0  0  0  0  0  0  0  0  0  0
   -2.1395   -2.3519   -1.3087 H   0  0  0  0  0  0  0  0  0  0  0  0
   -2.0328   -0.1463   -2.0446 H   0  0  0  0  0  0  0  0  0  0  0  0
    0.0763    0.8744   -1.7279 H   0  0  0  0  0  0  0  0  0  0  0  0
    0.2199   -1.0745   -3.0563 H   0  0  0  0  0  0  0  0  0  0  0  0
    0.2056   -2.1730   -1.6827 H   0  0  0  0  0  0  0  0  0  0  0  0
    2.5137   -1.8533   -2.7327 H   0  0  0  0  0  0  0  0  0  0  0  0
    4.6142   -1.4297   -1.8783 H   0  0  0  0  0  0  0  0  0  0  0  0
    4.7213    0.2946   -1.5517 H   0  0  0  0  0  0  0  0  0  0  0  0
    6.0352   -0.8856    0.1176 H   0  0  0  0  0  0  0  0  0  0  0  0
    4.7146   -2.8668   -0.1542 H   0  0  0  0  0  0  0  0  0  0  0  0
    4.8468   -0.2737    2.2441 H   0  0  0  0  0  0  0  0  0  0  0  0
    4.8353    1.0282    1.0542 H   0  0  0  0  0  0  0  0  0  0  0  0
    2.5863   -0.9243    1.7268 H   0  0  0  0  0  0  0  0  0  0  0  0
    2.6386    0.7888    2.1007 H   0  0  0  0  0  0  0  0  0  0  0  0
    1.9063    2.1178   -1.2912 H   0  0  0  0  0  0  0  0  0  0  0  0
    3.5346    2.0100   -0.6396 H   0  0  0  0  0  0  0  0  0  0  0  0
    2.2260    2.5163    0.4048 H   0  0  0  0  0  0  0  0  0  0  0  0
    0.5667   -0.8882    0.6960 H   0  0  0  0  0  0  0  0  0  0  0  0
    0.4216    1.1390    2.0666 H   0  0  0  0  0  0  0  0  0  0  0  0
    0.0793    2.1301    0.6599 H   0  0  0  0  0  0  0  0  0  0  0  0
   -1.9484    1.6458    1.8748 H   0  0  0  0  0  0  0  0  0  0  0  0
   -1.6469   -0.0774    1.8238 H   0  0  0  0  0  0  0  0  0  0  0  0
   -2.9095    2.8641   -0.0970 H   0  0  0  0  0  0  0  0  0  0  0  0
   -1.4198    2.5657   -0.9948 H   0  0  0  0  0  0  0  0  0  0  0  0
   -2.9693    2.1014   -1.6890 H   0  0  0  0  0  0  0  0  0  0  0  0
  1  2  1  0
  2  3  2  0
  2  4  1  0
  4  5  1  0
  5  6  1  0
  6  7  1  0
  7  8  1  0
  8  9  1  0
  9 10  1  0
 10 11  2  0
 11 12  1  0
 12 13  1  0
 13 14  1  0
 13 15  1  0
 15 16  1  0
 16 17  1  0
 17 18  1  0
 17 19  1  0
 19 20  1  0
 20 21  1  0
 21 22  1  0
 22 23  1  0
 17 11  1  0
 19  8  1  0
 22  4  1  0
 22  7  1  0
  1 24  1  0
  1 25  1  0
  1 26  1  0
  4 27  1  0
  5 28  1  0
  5 29  1  0
  6 30  1  0
  6 31  1  0
  7 32  1  0
  8 33  1  0
  9 34  1  0
  9 35  1  0
 10 36  1  0
 12 37  1  0
 12 38  1  0
 13 39  1  0
 14 40  1  0
 15 41  1  0
 15 42  1  0
 16 43  1  0
 16 44  1  0
 18 45  1  0
 18 46  1  0
 18 47  1  0
 19 48  1  0
 20 49  1  0
 20 50  1  0
 21 51  1  0
 21 52  1  0
 23 53  1  0
 23 54  1  0
 23 55  1  0
M  END
>  <Energy>  (3) 
82.74856847632373

>  <Real charge>  (3) 
0

>  <Mult>  (3) 
1

$$$$
mol_173 58
     RDKit          3D

 55 58  0  0  0  0  0  0  0  0999 V2000
   -5.9902   -0.4325   -0.4187 C   0  0  0  0  0  0  0  0  0  0  0  0
   -4.8035    0.4853   -0.2725 C   0  0  0  0  0  0  0  0  0  0  0  0
   -4.7506    1.5517   -0.8850 O   0  0  0  0  0  0  0  0  0  0  0  0
   -3.6857    0.0187    0.6636 C   0  0  0  0  0  0  0  0  0  0  0  0
   -3.2605    1.1745    1.5804 C   0  0  0  0  0  0  0  0  0  0  0  0
   -1.9153    1.6808    1.0538 C   0  0  0  0  0  0  0  0  0  0  0  0
   -1.6329    0.9105   -0.2477 C   0  0  0  0  0  0  0  0  0  0  0  0
   -0.1388    0.7532   -0.6204 C   0  0  0  0  0  0  0  0  0  0  0  0
    0.5637    2.1214   -0.6640 C   0  0  0  0  0  0  0  0  0  0  0  0
    2.0523    2.0362   -0.7706 C   0  0  0  0  0  0  0  0  0  0  0  0
    2.7720    0.9189   -0.5700 C   0  0  0  0  0  0  0  0  0  0  0  0
    4.2794    0.9500   -0.7190 C   0  0  0  0  0  0  0  0  0  0  0  0
    4.9890    0.3411    0.4903 C   0  0  0  0  0  0  0  0  0  0  0  0
    6.3876    0.2651    0.2225 O   0  0  0  0  0  0  0  0  0  0  0  0
    4.4565   -1.0564    0.7927 C   0  0  0  0  0  0  0  0  0  0  0  0
    2.9419   -1.0426    0.9977 C   0  0  0  0  0  0  0  0  0  0  0  0
    2.1368   -0.4234   -0.1849 C   0  0  0  0  0  0  0  0  0  0  0  0
    2.2290   -1.3612   -1.4137 C   0  0  0  0  0  0  0  0  0  0  0  0
    0.6347   -0.2337    0.2880 C   0  0  0  0  0  0  0  0  0  0  0  0
   -0.1316   -1.5646    0.4353 C   0  0  0  0  0  0  0  0  0  0  0  0
   -1.5783   -1.3638    0.8806 C   0  0  0  0  0  0  0  0  0  0  0  0
   -2.3830   -0.4242   -0.0538 C   0  0  0  0  0  0  0  0  0  0  0  0
   -2.6472   -1.1323   -1.3937 C   0  0  0  0  0  0  0  0  0  0  0  0
   -6.4997   -0.5254    0.5435 H   0  0  0  0  0  0  0  0  0  0  0  0
   -5.6604   -1.4139   -0.7669 H   0  0  0  0  0  0  0  0  0  0  0  0
   -6.6888   -0.0171   -1.1504 H   0  0  0  0  0  0  0  0  0  0  0  0
   -4.0984   -0.7949    1.2734 H   0  0  0  0  0  0  0  0  0  0  0  0
   -3.9979    1.9838    1.6183 H   0  0  0  0  0  0  0  0  0  0  0  0
   -3.1346    0.8150    2.6088 H   0  0  0  0  0  0  0  0  0  0  0  0
   -1.1419    1.5105    1.8103 H   0  0  0  0  0  0  0  0  0  0  0  0
   -1.9544    2.7603    0.8709 H   0  0  0  0  0  0  0  0  0  0  0  0
   -2.1095    1.4728   -1.0636 H   0  0  0  0  0  0  0  0  0  0  0  0
   -0.1161    0.3467   -1.6410 H   0  0  0  0  0  0  0  0  0  0  0  0
    0.3434    2.7114    0.2322 H   0  0  0  0  0  0  0  0  0  0  0  0
    0.1781    2.6898   -1.5191 H   0  0  0  0  0  0  0  0  0  0  0  0
    2.5565    2.9658   -1.0287 H   0  0  0  0  0  0  0  0  0  0  0  0
    4.5712    0.4151   -1.6316 H   0  0  0  0  0  0  0  0  0  0  0  0
    4.6484    1.9738   -0.8637 H   0  0  0  0  0  0  0  0  0  0  0  0
    4.8517    0.9915    1.3629 H   0  0  0  0  0  0  0  0  0  0  0  0
    6.8160   -0.1002    1.0154 H   0  0  0  0  0  0  0  0  0  0  0  0
    4.7320   -1.7485   -0.0124 H   0  0  0  0  0  0  0  0  0  0  0  0
    4.9466   -1.4489    1.6923 H   0  0  0  0  0  0  0  0  0  0  0  0
    2.6137   -2.0716    1.1857 H   0  0  0  0  0  0  0  0  0  0  0  0
    2.7334   -0.4796    1.9178 H   0  0  0  0  0  0  0  0  0  0  0  0
    1.5846   -1.0218   -2.2314 H   0  0  0  0  0  0  0  0  0  0  0  0
    3.2449   -1.4232   -1.8178 H   0  0  0  0  0  0  0  0  0  0  0  0
    1.9421   -2.3873   -1.1610 H   0  0  0  0  0  0  0  0  0  0  0  0
    0.6690    0.2205    1.2895 H   0  0  0  0  0  0  0  0  0  0  0  0
   -0.1317   -2.1212   -0.5063 H   0  0  0  0  0  0  0  0  0  0  0  0
    0.3658   -2.2040    1.1728 H   0  0  0  0  0  0  0  0  0  0  0  0
   -2.0748   -2.3411    0.9389 H   0  0  0  0  0  0  0  0  0  0  0  0
   -1.5657   -0.9768    1.9072 H   0  0  0  0  0  0  0  0  0  0  0  0
   -3.2493   -2.0352   -1.2451 H   0  0  0  0  0  0  0  0  0  0  0  0
   -3.1789   -0.4859   -2.0998 H   0  0  0  0  0  0  0  0  0  0  0  0
   -1.7207   -1.4328   -1.8917 H   0  0  0  0  0  0  0  0  0  0  0  0
  1  2  1  0
  2  3  2  0
  2  4  1  0
  4  5  1  0
  5  6  1  0
  6  7  1  0
  7  8  1  0
  8  9  1  0
  9 10  1  0
 10 11  2  0
 11 12  1  0
 12 13  1  0
 13 14  1  0
 13 15  1  0
 15 16  1  0
 16 17  1  0
 17 18  1  0
 17 19  1  0
 19 20  1  0
 20 21  1  0
 21 22  1  0
 22 23  1  0
 17 11  1  0
 19  8  1  0
 22  4  1  0
 22  7  1  0
  1 24  1  0
  1 25  1  0
  1 26  1  0
  4 27  1  0
  5 28  1  0
  5 29  1  0
  6 30  1  0
  6 31  1  0
  7 32  1  0
  8 33  1  0
  9 34  1  0
  9 35  1  0
 10 36  1  0
 12 37  1  0
 12 38  1  0
 13 39  1  0
 14 40  1  0
 15 41  1  0
 15 42  1  0
 16 43  1  0
 16 44  1  0
 18 45  1  0
 18 46  1  0
 18 47  1  0
 19 48  1  0
 20 49  1  0
 20 50  1  0
 21 51  1  0
 21 52  1  0
 23 53  1  0
 23 54  1  0
 23 55  1  0
M  END
>  <Energy>  (4) 
82.98417870566044

>  <Real charge>  (4) 
0

>  <Mult>  (4) 
1

$$$$
mol_173 32
     RDKit          3D

 55 58  0  0  0  0  0  0  0  0999 V2000
   -5.8973    1.7415    0.0382 C   0  0  0  0  0  0  0  0  0  0  0  0
   -4.6659    1.2731   -0.6987 C   0  0  0  0  0  0  0  0  0  0  0  0
   -4.4752    1.6217   -1.8632 O   0  0  0  0  0  0  0  0  0  0  0  0
   -3.7435    0.3010    0.0380 C   0  0  0  0  0  0  0  0  0  0  0  0
   -3.4096    0.7584    1.4621 C   0  0  0  0  0  0  0  0  0  0  0  0
   -2.0484    0.1505    1.7997 C   0  0  0  0  0  0  0  0  0  0  0  0
   -1.6389   -0.6913    0.5782 C   0  0  0  0  0  0  0  0  0  0  0  0
   -0.1169   -0.8870    0.3835 C   0  0  0  0  0  0  0  0  0  0  0  0
    0.5337   -1.4579    1.6554 C   0  0  0  0  0  0  0  0  0  0  0  0
    2.0282   -1.4409    1.6328 C   0  0  0  0  0  0  0  0  0  0  0  0
    2.7725   -0.7542    0.7490 C   0  0  0  0  0  0  0  0  0  0  0  0
    4.2836   -0.8196    0.8190 C   0  0  0  0  0  0  0  0  0  0  0  0
    4.9242    0.5694    0.8002 C   0  0  0  0  0  0  0  0  0  0  0  0
    6.3437    0.4517    0.7206 O   0  0  0  0  0  0  0  0  0  0  0  0
    4.4196    1.3982   -0.3772 C   0  0  0  0  0  0  0  0  0  0  0  0
    2.8944    1.4965   -0.3737 C   0  0  0  0  0  0  0  0  0  0  0  0
    2.1604    0.1213   -0.3530 C   0  0  0  0  0  0  0  0  0  0  0  0
    2.3824   -0.5979   -1.7063 C   0  0  0  0  0  0  0  0  0  0  0  0
    0.6206    0.3895   -0.0849 C   0  0  0  0  0  0  0  0  0  0  0  0
   -0.1057    1.0295   -1.2844 C   0  0  0  0  0  0  0  0  0  0  0  0
   -1.5884    1.2823   -1.0144 C   0  0  0  0  0  0  0  0  0  0  0  0
   -2.3592    0.0048   -0.6032 C   0  0  0  0  0  0  0  0  0  0  0  0
   -2.5098   -0.9498   -1.8001 C   0  0  0  0  0  0  0  0  0  0  0  0
   -5.6169    2.4310    0.8372 H   0  0  0  0  0  0  0  0  0  0  0  0
   -6.4309    0.8804    0.4485 H   0  0  0  0  0  0  0  0  0  0  0  0
   -6.5632    2.2620   -0.6562 H   0  0  0  0  0  0  0  0  0  0  0  0
   -4.3074   -0.6408    0.1097 H   0  0  0  0  0  0  0  0  0  0  0  0
   -3.3600    1.8506    1.5416 H   0  0  0  0  0  0  0  0  0  0  0  0
   -4.1755    0.4210    2.1695 H   0  0  0  0  0  0  0  0  0  0  0  0
   -1.3331    0.9526    2.0095 H   0  0  0  0  0  0  0  0  0  0  0  0
   -2.1134   -0.4692    2.7008 H   0  0  0  0  0  0  0  0  0  0  0  0
   -2.0796   -1.6903    0.7188 H   0  0  0  0  0  0  0  0  0  0  0  0
   -0.0001   -1.6431   -0.4049 H   0  0  0  0  0  0  0  0  0  0  0  0
    0.1921   -2.4910    1.7940 H   0  0  0  0  0  0  0  0  0  0  0  0
    0.2239   -0.9011    2.5463 H   0  0  0  0  0  0  0  0  0  0  0  0
    2.5146   -2.0330    2.4061 H   0  0  0  0  0  0  0  0  0  0  0  0
    4.6634   -1.4174   -0.0191 H   0  0  0  0  0  0  0  0  0  0  0  0
    4.6233   -1.3496    1.7184 H   0  0  0  0  0  0  0  0  0  0  0  0
    4.6963    1.0905    1.7377 H   0  0  0  0  0  0  0  0  0  0  0  0
    6.5610    0.0139   -0.1202 H   0  0  0  0  0  0  0  0  0  0  0  0
    4.8563    2.4035   -0.3299 H   0  0  0  0  0  0  0  0  0  0  0  0
    4.7759    0.9723   -1.3232 H   0  0  0  0  0  0  0  0  0  0  0  0
    2.5884    2.0798   -1.2501 H   0  0  0  0  0  0  0  0  0  0  0  0
    2.5980    2.0838    0.5062 H   0  0  0  0  0  0  0  0  0  0  0  0
    3.4281   -0.8836   -1.8619 H   0  0  0  0  0  0  0  0  0  0  0  0
    2.1155    0.0433   -2.5529 H   0  0  0  0  0  0  0  0  0  0  0  0
    1.7908   -1.5165   -1.7786 H   0  0  0  0  0  0  0  0  0  0  0  0
    0.5599    1.1125    0.7420 H   0  0  0  0  0  0  0  0  0  0  0  0
    0.3616    1.9871   -1.5388 H   0  0  0  0  0  0  0  0  0  0  0  0
   -0.0207    0.3966   -2.1731 H   0  0  0  0  0  0  0  0  0  0  0  0
   -1.6709    2.0551   -0.2407 H   0  0  0  0  0  0  0  0  0  0  0  0
   -2.0238    1.7168   -1.9212 H   0  0  0  0  0  0  0  0  0  0  0  0
   -1.5423   -1.2925   -2.1786 H   0  0  0  0  0  0  0  0  0  0  0  0
   -3.0356   -0.4675   -2.6304 H   0  0  0  0  0  0  0  0  0  0  0  0
   -3.0804   -1.8439   -1.5244 H   0  0  0  0  0  0  0  0  0  0  0  0
  1  2  1  0
  2  3  2  0
  2  4  1  0
  4  5  1  0
  5  6  1  0
  6  7  1  0
  7  8  1  0
  8  9  1  0
  9 10  1  0
 10 11  2  0
 11 12  1  0
 12 13  1  0
 13 14  1  0
 13 15  1  0
 15 16  1  0
 16 17  1  0
 17 18  1  0
 17 19  1  0
 19 20  1  0
 20 21  1  0
 21 22  1  0
 22 23  1  0
 17 11  1  0
 19  8  1  0
 22  4  1  0
 22  7  1  0
  1 24  1  0
  1 25  1  0
  1 26  1  0
  4 27  1  0
  5 28  1  0
  5 29  1  0
  6 30  1  0
  6 31  1  0
  7 32  1  0
  8 33  1  0
  9 34  1  0
  9 35  1  0
 10 36  1  0
 12 37  1  0
 12 38  1  0
 13 39  1  0
 14 40  1  0
 15 41  1  0
 15 42  1  0
 16 43  1  0
 16 44  1  0
 18 45  1  0
 18 46  1  0
 18 47  1  0
 19 48  1  0
 20 49  1  0
 20 50  1  0
 21 51  1  0
 21 52  1  0
 23 53  1  0
 23 54  1  0
 23 55  1  0
M  END
>  <Energy>  (5) 
83.06867223638604

>  <Real charge>  (5) 
0

>  <Mult>  (5) 
1

$$$$
mol_173 81
     RDKit          3D

 55 58  0  0  0  0  0  0  0  0999 V2000
    5.9193    0.7385    0.8692 C   0  0  0  0  0  0  0  0  0  0  0  0
    4.7084   -0.1594    0.7904 C   0  0  0  0  0  0  0  0  0  0  0  0
    4.5954   -1.1097    1.5638 O   0  0  0  0  0  0  0  0  0  0  0  0
    3.7059    0.1232   -0.3292 C   0  0  0  0  0  0  0  0  0  0  0  0
    3.3227    1.6039   -0.4275 C   0  0  0  0  0  0  0  0  0  0  0  0
    1.9198    1.6446   -1.0327 C   0  0  0  0  0  0  0  0  0  0  0  0
    1.5329    0.1830   -1.3194 C   0  0  0  0  0  0  0  0  0  0  0  0
    0.0151   -0.1146   -1.3306 C   0  0  0  0  0  0  0  0  0  0  0  0
   -0.7244    0.8220   -2.3010 C   0  0  0  0  0  0  0  0  0  0  0  0
   -2.2126    0.7683   -2.1806 C   0  0  0  0  0  0  0  0  0  0  0  0
   -2.8803    0.1973   -1.1626 C   0  0  0  0  0  0  0  0  0  0  0  0
   -4.3999    0.2075   -1.1530 C   0  0  0  0  0  0  0  0  0  0  0  0
   -4.9924    0.6581    0.1857 C   0  0  0  0  0  0  0  0  0  0  0  0
   -4.8083    2.0662    0.3399 O   0  0  0  0  0  0  0  0  0  0  0  0
   -4.3648   -0.0877    1.3600 C   0  0  0  0  0  0  0  0  0  0  0  0
   -2.8370    0.0123    1.3462 C   0  0  0  0  0  0  0  0  0  0  0  0
   -2.1733   -0.4708    0.0223 C   0  0  0  0  0  0  0  0  0  0  0  0
   -2.3612   -2.0016   -0.1182 C   0  0  0  0  0  0  0  0  0  0  0  0
   -0.6372   -0.0788    0.0714 C   0  0  0  0  0  0  0  0  0  0  0  0
    0.1769   -0.9224    1.0723 C   0  0  0  0  0  0  0  0  0  0  0  0
    1.6548   -0.5352    1.1104 C   0  0  0  0  0  0  0  0  0  0  0  0
    2.3432   -0.6216   -0.2729 C   0  0  0  0  0  0  0  0  0  0  0  0
    2.5087   -2.0877   -0.7085 C   0  0  0  0  0  0  0  0  0  0  0  0
    5.6290    1.7300    1.2232 H   0  0  0  0  0  0  0  0  0  0  0  0
    6.3907    0.8085   -0.1143 H   0  0  0  0  0  0  0  0  0  0  0  0
    6.6440    0.3145    1.5703 H   0  0  0  0  0  0  0  0  0  0  0  0
    4.2211   -0.1543   -1.2607 H   0  0  0  0  0  0  0  0  0  0  0  0
    4.0360    2.1504   -1.0548 H   0  0  0  0  0  0  0  0  0  0  0  0
    3.3197    2.0932    0.5535 H   0  0  0  0  0  0  0  0  0  0  0  0
    1.9112    2.2414   -1.9514 H   0  0  0  0  0  0  0  0  0  0  0  0
    1.2330    2.1253   -0.3283 H   0  0  0  0  0  0  0  0  0  0  0  0
    1.9186   -0.0567   -2.3222 H   0  0  0  0  0  0  0  0  0  0  0  0
   -0.0972   -1.1355   -1.7206 H   0  0  0  0  0  0  0  0  0  0  0  0
   -0.4411    0.5622   -3.3283 H   0  0  0  0  0  0  0  0  0  0  0  0
   -0.4318    1.8664   -2.1480 H   0  0  0  0  0  0  0  0  0  0  0  0
   -2.7655    1.2508   -2.9844 H   0  0  0  0  0  0  0  0  0  0  0  0
   -4.7552   -0.8043   -1.3823 H   0  0  0  0  0  0  0  0  0  0  0  0
   -4.7811    0.8632   -1.9461 H   0  0  0  0  0  0  0  0  0  0  0  0
   -6.0739    0.4810    0.1754 H   0  0  0  0  0  0  0  0  0  0  0  0
   -5.1592    2.3159    1.2111 H   0  0  0  0  0  0  0  0  0  0  0  0
   -4.7302    0.3317    2.3052 H   0  0  0  0  0  0  0  0  0  0  0  0
   -4.6703   -1.1399    1.3378 H   0  0  0  0  0  0  0  0  0  0  0  0
   -2.4536   -0.5640    2.1965 H   0  0  0  0  0  0  0  0  0  0  0  0
   -2.5611    1.0584    1.5364 H   0  0  0  0  0  0  0  0  0  0  0  0
   -2.0270   -2.5332    0.7790 H   0  0  0  0  0  0  0  0  0  0  0  0
   -3.4093   -2.2832   -0.2645 H   0  0  0  0  0  0  0  0  0  0  0  0
   -1.8064   -2.4012   -0.9735 H   0  0  0  0  0  0  0  0  0  0  0  0
   -0.5830    0.9630    0.4205 H   0  0  0  0  0  0  0  0  0  0  0  0
    0.1058   -1.9875    0.8311 H   0  0  0  0  0  0  0  0  0  0  0  0
   -0.2308   -0.8044    2.0821 H   0  0  0  0  0  0  0  0  0  0  0  0
    2.1548   -1.1947    1.8286 H   0  0  0  0  0  0  0  0  0  0  0  0
    1.7351    0.4770    1.5247 H   0  0  0  0  0  0  0  0  0  0  0  0
    3.0975   -2.6553    0.0192 H   0  0  0  0  0  0  0  0  0  0  0  0
    3.0222   -2.1585   -1.6741 H   0  0  0  0  0  0  0  0  0  0  0  0
    1.5463   -2.5958   -0.8204 H   0  0  0  0  0  0  0  0  0  0  0  0
  1  2  1  0
  2  3  2  0
  2  4  1  0
  4  5  1  0
  5  6  1  0
  6  7  1  0
  7  8  1  0
  8  9  1  0
  9 10  1  0
 10 11  2  0
 11 12  1  0
 12 13  1  0
 13 14  1  0
 13 15  1  0
 15 16  1  0
 16 17  1  0
 17 18  1  0
 17 19  1  0
 19 20  1  0
 20 21  1  0
 21 22  1  0
 22 23  1  0
 17 11  1  0
 19  8  1  0
 22  4  1  0
 22  7  1  0
  1 24  1  0
  1 25  1  0
  1 26  1  0
  4 27  1  0
  5 28  1  0
  5 29  1  0
  6 30  1  0
  6 31  1  0
  7 32  1  0
  8 33  1  0
  9 34  1  0
  9 35  1  0
 10 36  1  0
 12 37  1  0
 12 38  1  0
 13 39  1  0
 14 40  1  0
 15 41  1  0
 15 42  1  0
 16 43  1  0
 16 44  1  0
 18 45  1  0
 18 46  1  0
 18 47  1  0
 19 48  1  0
 20 49  1  0
 20 50  1  0
 21 51  1  0
 21 52  1  0
 23 53  1  0
 23 54  1  0
 23 55  1  0
M  END
>  <Energy>  (6) 
83.29450082260854

>  <Real charge>  (6) 
0

>  <Mult>  (6) 
1

$$$$
