mol_667 295
     RDKit          3D

 20 19  0  0  0  0  0  0  0  0999 V2000
    1.2189   -1.2594   -1.0243 C   0  0  0  0  0  0  0  0  0  0  0  0
    0.8252    0.0429   -0.3189 C   0  0  0  0  0  0  0  0  0  0  0  0
    1.3433    0.0222    1.1218 C   0  0  0  0  0  0  0  0  0  0  0  0
   -0.6970    0.3228   -0.4408 C   0  0  0  0  0  0  0  0  0  0  0  0
   -1.0520    1.7358    0.0347 C   0  0  0  0  0  0  0  0  0  0  0  0
   -1.5801   -0.6981    0.2820 C   0  0  0  0  0  0  0  0  0  0  0  0
    0.8200   -2.1391   -0.5097 H   0  0  0  0  0  0  0  0  0  0  0  0
    0.8549   -1.2705   -2.0569 H   0  0  0  0  0  0  0  0  0  0  0  0
    2.3092   -1.3630   -1.0568 H   0  0  0  0  0  0  0  0  0  0  0  0
    1.3494    0.8548   -0.8413 H   0  0  0  0  0  0  0  0  0  0  0  0
    2.4298   -0.1198    1.1343 H   0  0  0  0  0  0  0  0  0  0  0  0
    0.8996   -0.7931    1.7017 H   0  0  0  0  0  0  0  0  0  0  0  0
    1.1351    0.9641    1.6373 H   0  0  0  0  0  0  0  0  0  0  0  0
   -0.9532    0.2763   -1.5081 H   0  0  0  0  0  0  0  0  0  0  0  0
   -0.9221    1.8474    1.1157 H   0  0  0  0  0  0  0  0  0  0  0  0
   -0.4295    2.4849   -0.4656 H   0  0  0  0  0  0  0  0  0  0  0  0
   -2.0977    1.9666   -0.1970 H   0  0  0  0  0  0  0  0  0  0  0  0
   -1.3979   -1.7142   -0.0793 H   0  0  0  0  0  0  0  0  0  0  0  0
   -1.4167   -0.6828    1.3641 H   0  0  0  0  0  0  0  0  0  0  0  0
   -2.6392   -0.4779    0.1070 H   0  0  0  0  0  0  0  0  0  0  0  0
  1  2  1  0
  2  3  1  0
  2  4  1  0
  4  5  1  0
  4  6  1  0
  1  7  1  0
  1  8  1  0
  1  9  1  0
  2 10  1  0
  3 11  1  0
  3 12  1  0
  3 13  1  0
  4 14  1  0
  5 15  1  0
  5 16  1  0
  5 17  1  0
  6 18  1  0
  6 19  1  0
  6 20  1  0
M  END
>  <Energy>  (1) 
6.40088036925865

>  <Real charge>  (1) 
0

>  <Mult>  (1) 
1

$$$$
mol_667 170
     RDKit          3D

 20 19  0  0  0  0  0  0  0  0999 V2000
   -1.5299   -1.2248    0.1203 C   0  0  0  0  0  0  0  0  0  0  0  0
   -0.6543   -0.0833   -0.4117 C   0  0  0  0  0  0  0  0  0  0  0  0
   -1.4892    1.2032   -0.4356 C   0  0  0  0  0  0  0  0  0  0  0  0
    0.6543    0.0833    0.4117 C   0  0  0  0  0  0  0  0  0  0  0  0
    1.5299    1.2248   -0.1203 C   0  0  0  0  0  0  0  0  0  0  0  0
    1.4892   -1.2032    0.4356 C   0  0  0  0  0  0  0  0  0  0  0  0
   -1.7575   -1.0871    1.1826 H   0  0  0  0  0  0  0  0  0  0  0  0
   -2.4791   -1.2756   -0.4246 H   0  0  0  0  0  0  0  0  0  0  0  0
   -1.0419   -2.1959   -0.0048 H   0  0  0  0  0  0  0  0  0  0  0  0
   -0.3887   -0.3253   -1.4493 H   0  0  0  0  0  0  0  0  0  0  0  0
   -0.9715    2.0072   -0.9670 H   0  0  0  0  0  0  0  0  0  0  0  0
   -2.4402    1.0422   -0.9552 H   0  0  0  0  0  0  0  0  0  0  0  0
   -1.7134    1.5486    0.5793 H   0  0  0  0  0  0  0  0  0  0  0  0
    0.3887    0.3253    1.4493 H   0  0  0  0  0  0  0  0  0  0  0  0
    1.7575    1.0871   -1.1826 H   0  0  0  0  0  0  0  0  0  0  0  0
    2.4791    1.2756    0.4246 H   0  0  0  0  0  0  0  0  0  0  0  0
    1.0419    2.1959    0.0048 H   0  0  0  0  0  0  0  0  0  0  0  0
    0.9715   -2.0072    0.9670 H   0  0  0  0  0  0  0  0  0  0  0  0
    1.7134   -1.5486   -0.5793 H   0  0  0  0  0  0  0  0  0  0  0  0
    2.4402   -1.0422    0.9552 H   0  0  0  0  0  0  0  0  0  0  0  0
  1  2  1  0
  2  3  1  0
  2  4  1  0
  4  5  1  0
  4  6  1  0
  1  7  1  0
  1  8  1  0
  1  9  1  0
  2 10  1  0
  3 11  1  0
  3 12  1  0
  3 13  1  0
  4 14  1  0
  5 15  1  0
  5 16  1  0
  5 17  1  0
  6 18  1  0
  6 19  1  0
  6 20  1  0
M  END
>  <Energy>  (2) 
6.632065121109679

>  <Real charge>  (2) 
0

>  <Mult>  (2) 
1

$$$$
