mol_388 99
     RDKit          3D

 20 20  0  0  0  0  0  0  0  0999 V2000
   -1.3864    1.3989    0.4607 C   0  0  0  0  0  0  0  0  0  0  0  0
   -2.7375    1.2478    0.7703 C   0  0  0  0  0  0  0  0  0  0  0  0
   -3.4394    0.1317    0.3086 C   0  0  0  0  0  0  0  0  0  0  0  0
   -2.7940   -0.8338   -0.4676 C   0  0  0  0  0  0  0  0  0  0  0  0
   -1.4432   -0.6881   -0.7815 C   0  0  0  0  0  0  0  0  0  0  0  0
   -0.7482    0.4200   -0.2984 C   0  0  0  0  0  0  0  0  0  0  0  0
    0.5925    0.6250   -0.6414 O   0  0  0  0  0  0  0  0  0  0  0  0
    1.4853   -0.2581   -0.0552 C   0  0  0  0  0  0  0  0  0  0  0  0
    1.2119   -1.1539    0.7315 O   0  0  0  0  0  0  0  0  0  0  0  0
    2.7505    0.0360   -0.4854 N   0  0  0  0  0  0  0  0  0  0  0  0
    3.9094   -0.6198    0.0548 C   0  0  0  0  0  0  0  0  0  0  0  0
   -0.8384    2.2676    0.8115 H   0  0  0  0  0  0  0  0  0  0  0  0
   -3.2451    1.9983    1.3703 H   0  0  0  0  0  0  0  0  0  0  0  0
   -4.4921    0.0142    0.5535 H   0  0  0  0  0  0  0  0  0  0  0  0
   -3.3440   -1.6998   -0.8262 H   0  0  0  0  0  0  0  0  0  0  0  0
   -0.9400   -1.4357   -1.3867 H   0  0  0  0  0  0  0  0  0  0  0  0
    2.8501    0.8804   -1.0311 H   0  0  0  0  0  0  0  0  0  0  0  0
    3.7037   -1.6793    0.2290 H   0  0  0  0  0  0  0  0  0  0  0  0
    4.1717   -0.1404    1.0015 H   0  0  0  0  0  0  0  0  0  0  0  0
    4.7331   -0.5110   -0.6544 H   0  0  0  0  0  0  0  0  0  0  0  0
  1  2  2  0
  2  3  1  0
  3  4  2  0
  4  5  1  0
  5  6  2  0
  6  7  1  0
  7  8  1  0
  8  9  2  0
  8 10  1  0
 10 11  1  0
  6  1  1  0
  1 12  1  0
  2 13  1  0
  3 14  1  0
  4 15  1  0
  5 16  1  0
 10 17  1  0
 11 18  1  0
 11 19  1  0
 11 20  1  0
M  END
>  <Energy>  (1) 
-18.316174204700935

>  <Real charge>  (1) 
0

>  <Mult>  (1) 
1

$$$$
