mol_663 96
     RDKit          3D

 12 12  0  0  0  0  0  0  0  0999 V2000
    2.6151   -0.1211   -0.0185 O   0  0  0  0  0  0  0  0  0  0  0  0
    1.3948   -0.0664    0.0805 C   0  0  0  0  0  0  0  0  0  0  0  0
    0.6350   -1.1961    0.0905 N   0  0  0  0  0  0  0  0  0  0  0  0
   -0.7270   -1.2659   -0.0618 C   0  0  0  0  0  0  0  0  0  0  0  0
   -1.3175   -2.3101   -0.2861 O   0  0  0  0  0  0  0  0  0  0  0  0
   -1.4450    0.0664    0.0370 C   0  0  0  0  0  0  0  0  0  0  0  0
   -2.6557    0.1198    0.1751 O   0  0  0  0  0  0  0  0  0  0  0  0
   -0.6065    1.3292   -0.0099 C   0  0  0  0  0  0  0  0  0  0  0  0
   -1.0973    2.4317   -0.1912 O   0  0  0  0  0  0  0  0  0  0  0  0
    0.7429    1.1276    0.1370 N   0  0  0  0  0  0  0  0  0  0  0  0
    1.1373   -2.0679   -0.0165 H   0  0  0  0  0  0  0  0  0  0  0  0
    1.3240    1.9527    0.0640 H   0  0  0  0  0  0  0  0  0  0  0  0
  1  2  2  0
  2  3  1  0
  3  4  1  0
  4  5  2  0
  4  6  1  0
  6  7  2  0
  6  8  1  0
  8  9  2  0
  8 10  1  0
 10  2  1  0
  3 11  1  0
 10 12  1  0
M  END
>  <Energy>  (1) 
-69.47827019237609

>  <Real charge>  (1) 
0

>  <Mult>  (1) 
1

$$$$
