mol_304 313
     RDKit          3D

 45 45  0  0  0  0  0  0  0  0999 V2000
   -3.3252    2.0489   -1.3087 C   0  0  0  0  0  0  0  0  0  0  0  0
   -2.3976    2.2512   -0.1193 C   0  0  0  0  0  0  0  0  0  0  0  0
   -2.2637    0.9986    0.7502 C   0  0  0  0  0  0  0  0  0  0  0  0
   -1.5273   -0.0744    0.0462 N   0  0  0  0  0  0  0  0  0  0  0  0
   -2.0710   -1.4411    0.2001 C   0  0  0  0  0  0  0  0  0  0  0  0
   -3.2513   -1.6494   -0.7521 C   0  0  0  0  0  0  0  0  0  0  0  0
   -3.7981   -3.0649   -0.6571 C   0  0  0  0  0  0  0  0  0  0  0  0
   -0.1231   -0.0042    0.0896 C   0  0  0  0  0  0  0  0  0  0  0  0
    0.6786   -0.1465    1.2387 C   0  0  0  0  0  0  0  0  0  0  0  0
    2.0853   -0.0242    1.2261 C   0  0  0  0  0  0  0  0  0  0  0  0
    2.7667    0.2363    0.0318 C   0  0  0  0  0  0  0  0  0  0  0  0
    2.0113    0.3536   -1.1384 C   0  0  0  0  0  0  0  0  0  0  0  0
    0.6084    0.2258   -1.0928 C   0  0  0  0  0  0  0  0  0  0  0  0
   -0.0815    0.3279   -2.3629 N   0  0  0  0  0  4  0  0  0  0  0  0
   -0.1698    1.4590   -2.8618 O   0  0  0  0  0  1  0  0  0  0  0  0
   -0.4519   -0.7297   -2.8914 O   0  0  0  0  0  0  0  0  0  0  0  0
    4.2776    0.3766   -0.0194 C   0  0  0  0  0  0  0  0  0  0  0  0
    4.7636    1.5480    0.8377 C   0  0  0  0  0  0  0  0  0  0  0  0
    4.9751   -0.9236    0.3876 C   0  0  0  0  0  0  0  0  0  0  0  0
    0.0987   -0.4672    2.5256 N   0  0  0  0  0  4  0  0  0  0  0  0
    0.0343    0.4496    3.3557 O   0  0  0  0  0  1  0  0  0  0  0  0
   -0.2357   -1.6434    2.7186 O   0  0  0  0  0  0  0  0  0  0  0  0
   -4.3293    1.7659   -0.9768 H   0  0  0  0  0  0  0  0  0  0  0  0
   -3.4090    2.9772   -1.8827 H   0  0  0  0  0  0  0  0  0  0  0  0
   -2.9558    1.2703   -1.9814 H   0  0  0  0  0  0  0  0  0  0  0  0
   -2.8042    3.0611    0.4982 H   0  0  0  0  0  0  0  0  0  0  0  0
   -1.4159    2.5865   -0.4710 H   0  0  0  0  0  0  0  0  0  0  0  0
   -1.7737    1.2734    1.6884 H   0  0  0  0  0  0  0  0  0  0  0  0
   -3.2676    0.6540    1.0272 H   0  0  0  0  0  0  0  0  0  0  0  0
   -1.3040   -2.1930   -0.0292 H   0  0  0  0  0  0  0  0  0  0  0  0
   -2.3956   -1.6076    1.2340 H   0  0  0  0  0  0  0  0  0  0  0  0
   -2.9405   -1.4516   -1.7842 H   0  0  0  0  0  0  0  0  0  0  0  0
   -4.0559   -0.9414   -0.5244 H   0  0  0  0  0  0  0  0  0  0  0  0
   -4.1486   -3.2824    0.3568 H   0  0  0  0  0  0  0  0  0  0  0  0
   -3.0317   -3.8003   -0.9217 H   0  0  0  0  0  0  0  0  0  0  0  0
   -4.6415   -3.1921   -1.3429 H   0  0  0  0  0  0  0  0  0  0  0  0
    2.6415   -0.1399    2.1564 H   0  0  0  0  0  0  0  0  0  0  0  0
    2.5030    0.5416   -2.0927 H   0  0  0  0  0  0  0  0  0  0  0  0
    4.5731    0.5916   -1.0549 H   0  0  0  0  0  0  0  0  0  0  0  0
    4.2718    2.4810    0.5403 H   0  0  0  0  0  0  0  0  0  0  0  0
    5.8440    1.6870    0.7221 H   0  0  0  0  0  0  0  0  0  0  0  0
    4.5614    1.3889    1.9025 H   0  0  0  0  0  0  0  0  0  0  0  0
    6.0601   -0.8323    0.2673 H   0  0  0  0  0  0  0  0  0  0  0  0
    4.6380   -1.7601   -0.2347 H   0  0  0  0  0  0  0  0  0  0  0  0
    4.7773   -1.1848    1.4330 H   0  0  0  0  0  0  0  0  0  0  0  0
  1  2  1  0
  2  3  1  0
  3  4  1  0
  4  5  1  0
  5  6  1  0
  6  7  1  0
  4  8  1  0
  8  9  2  0
  9 10  1  0
 10 11  2  0
 11 12  1  0
 12 13  2  0
 13 14  1  0
 14 15  1  0
 14 16  2  0
 11 17  1  0
 17 18  1  0
 17 19  1  0
  9 20  1  0
 20 21  1  0
 20 22  2  0
 13  8  1  0
  1 23  1  0
  1 24  1  0
  1 25  1  0
  2 26  1  0
  2 27  1  0
  3 28  1  0
  3 29  1  0
  5 30  1  0
  5 31  1  0
  6 32  1  0
  6 33  1  0
  7 34  1  0
  7 35  1  0
  7 36  1  0
 10 37  1  0
 12 38  1  0
 17 39  1  0
 18 40  1  0
 18 41  1  0
 18 42  1  0
 19 43  1  0
 19 44  1  0
 19 45  1  0
M  CHG  4  14   1  15  -1  20   1  21  -1
M  END
>  <Energy>  (1) 
123.52054251112466

>  <Real charge>  (1) 
0

>  <Mult>  (1) 
1

$$$$
mol_304 664
     RDKit          3D

 45 45  0  0  0  0  0  0  0  0999 V2000
   -4.1655    2.6005    0.1518 C   0  0  0  0  0  0  0  0  0  0  0  0
   -3.4489    1.2681    0.3020 C   0  0  0  0  0  0  0  0  0  0  0  0
   -2.2139    1.1930   -0.5994 C   0  0  0  0  0  0  0  0  0  0  0  0
   -1.5090   -0.0904   -0.3917 N   0  0  0  0  0  0  0  0  0  0  0  0
   -2.0748   -1.2617   -1.0966 C   0  0  0  0  0  0  0  0  0  0  0  0
   -2.0850   -2.5041   -0.2024 C   0  0  0  0  0  0  0  0  0  0  0  0
   -3.0783   -2.3981    0.9456 C   0  0  0  0  0  0  0  0  0  0  0  0
   -0.1065    0.0174   -0.3800 C   0  0  0  0  0  0  0  0  0  0  0  0
    0.7171    0.2380   -1.5009 C   0  0  0  0  0  0  0  0  0  0  0  0
    2.1264    0.2955   -1.4318 C   0  0  0  0  0  0  0  0  0  0  0  0
    2.7858    0.1467   -0.2067 C   0  0  0  0  0  0  0  0  0  0  0  0
    2.0040   -0.0429    0.9367 C   0  0  0  0  0  0  0  0  0  0  0  0
    0.5993   -0.0951    0.8346 C   0  0  0  0  0  0  0  0  0  0  0  0
   -0.1233   -0.2592    2.0797 N   0  0  0  0  0  4  0  0  0  0  0  0
   -0.6454    0.7529    2.5678 O   0  0  0  0  0  1  0  0  0  0  0  0
   -0.0885   -1.3825    2.6024 O   0  0  0  0  0  0  0  0  0  0  0  0
    4.3016    0.2072   -0.1441 C   0  0  0  0  0  0  0  0  0  0  0  0
    4.8958   -1.1013    0.3831 C   0  0  0  0  0  0  0  0  0  0  0  0
    4.7810    1.3986    0.6886 C   0  0  0  0  0  0  0  0  0  0  0  0
    0.1542    0.4575   -2.8163 N   0  0  0  0  0  4  0  0  0  0  0  0
    0.2396   -0.4760   -3.6256 O   0  0  0  0  0  1  0  0  0  0  0  0
   -0.3176    1.5779   -3.0505 O   0  0  0  0  0  0  0  0  0  0  0  0
   -3.5095    3.4323    0.4273 H   0  0  0  0  0  0  0  0  0  0  0  0
   -4.4990    2.7521   -0.8798 H   0  0  0  0  0  0  0  0  0  0  0  0
   -5.0456    2.6329    0.8017 H   0  0  0  0  0  0  0  0  0  0  0  0
   -4.1478    0.4593    0.0612 H   0  0  0  0  0  0  0  0  0  0  0  0
   -3.1580    1.1315    1.3496 H   0  0  0  0  0  0  0  0  0  0  0  0
   -1.5579    2.0405   -0.3595 H   0  0  0  0  0  0  0  0  0  0  0  0
   -2.5145    1.2968   -1.6486 H   0  0  0  0  0  0  0  0  0  0  0  0
   -1.5164   -1.4903   -2.0086 H   0  0  0  0  0  0  0  0  0  0  0  0
   -3.1021   -1.0528   -1.4198 H   0  0  0  0  0  0  0  0  0  0  0  0
   -1.0840   -2.7051    0.1943 H   0  0  0  0  0  0  0  0  0  0  0  0
   -2.3607   -3.3709   -0.8150 H   0  0  0  0  0  0  0  0  0  0  0  0
   -3.0675   -3.3181    1.5386 H   0  0  0  0  0  0  0  0  0  0  0  0
   -4.0957   -2.2515    0.5692 H   0  0  0  0  0  0  0  0  0  0  0  0
   -2.8378   -1.5659    1.6126 H   0  0  0  0  0  0  0  0  0  0  0  0
    2.7024    0.4624   -2.3424 H   0  0  0  0  0  0  0  0  0  0  0  0
    2.4747   -0.1483    1.9137 H   0  0  0  0  0  0  0  0  0  0  0  0
    4.6875    0.3482   -1.1625 H   0  0  0  0  0  0  0  0  0  0  0  0
    5.9900   -1.0711    0.3417 H   0  0  0  0  0  0  0  0  0  0  0  0
    4.6081   -1.2931    1.4225 H   0  0  0  0  0  0  0  0  0  0  0  0
    4.5609   -1.9536   -0.2186 H   0  0  0  0  0  0  0  0  0  0  0  0
    5.8732    1.4759    0.6567 H   0  0  0  0  0  0  0  0  0  0  0  0
    4.3671    2.3372    0.3034 H   0  0  0  0  0  0  0  0  0  0  0  0
    4.4845    1.3098    1.7394 H   0  0  0  0  0  0  0  0  0  0  0  0
  1  2  1  0
  2  3  1  0
  3  4  1  0
  4  5  1  0
  5  6  1  0
  6  7  1  0
  4  8  1  0
  8  9  2  0
  9 10  1  0
 10 11  2  0
 11 12  1  0
 12 13  2  0
 13 14  1  0
 14 15  1  0
 14 16  2  0
 11 17  1  0
 17 18  1  0
 17 19  1  0
  9 20  1  0
 20 21  1  0
 20 22  2  0
 13  8  1  0
  1 23  1  0
  1 24  1  0
  1 25  1  0
  2 26  1  0
  2 27  1  0
  3 28  1  0
  3 29  1  0
  5 30  1  0
  5 31  1  0
  6 32  1  0
  6 33  1  0
  7 34  1  0
  7 35  1  0
  7 36  1  0
 10 37  1  0
 12 38  1  0
 17 39  1  0
 18 40  1  0
 18 41  1  0
 18 42  1  0
 19 43  1  0
 19 44  1  0
 19 45  1  0
M  CHG  4  14   1  15  -1  20   1  21  -1
M  END
>  <Energy>  (2) 
123.52252026890896

>  <Real charge>  (2) 
0

>  <Mult>  (2) 
1

$$$$
mol_304 111
     RDKit          3D

 45 45  0  0  0  0  0  0  0  0999 V2000
   -3.6265   -3.4354    0.8190 C   0  0  0  0  0  0  0  0  0  0  0  0
   -3.2103   -2.1363    0.1476 C   0  0  0  0  0  0  0  0  0  0  0  0
   -2.0084   -1.5029    0.8535 C   0  0  0  0  0  0  0  0  0  0  0  0
   -1.5948   -0.2699    0.1455 N   0  0  0  0  0  0  0  0  0  0  0  0
   -2.3517    0.9488    0.5104 C   0  0  0  0  0  0  0  0  0  0  0  0
   -2.2104    2.0459   -0.5472 C   0  0  0  0  0  0  0  0  0  0  0  0
   -3.0590    3.2600   -0.2028 C   0  0  0  0  0  0  0  0  0  0  0  0
   -0.2019   -0.1499   -0.0040 C   0  0  0  0  0  0  0  0  0  0  0  0
    0.7144    0.2379    0.9902 C   0  0  0  0  0  0  0  0  0  0  0  0
    2.1016    0.3689    0.7593 C   0  0  0  0  0  0  0  0  0  0  0  0
    2.6433    0.0974   -0.5027 C   0  0  0  0  0  0  0  0  0  0  0  0
    1.7702   -0.3130   -1.5140 C   0  0  0  0  0  0  0  0  0  0  0  0
    0.3915   -0.4310   -1.2512 C   0  0  0  0  0  0  0  0  0  0  0  0
   -0.4352   -0.8697   -2.3560 N   0  0  0  0  0  4  0  0  0  0  0  0
   -0.6446   -2.0875   -2.4497 O   0  0  0  0  0  1  0  0  0  0  0  0
   -0.7974   -0.0042   -3.1651 O   0  0  0  0  0  0  0  0  0  0  0  0
    4.1292    0.2290   -0.7863 C   0  0  0  0  0  0  0  0  0  0  0  0
    4.9502   -0.7474    0.0593 C   0  0  0  0  0  0  0  0  0  0  0  0
    4.6147    1.6667   -0.5856 C   0  0  0  0  0  0  0  0  0  0  0  0
    0.2849    0.5020    2.3458 N   0  0  0  0  0  4  0  0  0  0  0  0
    0.0014   -0.4744    3.0520 O   0  0  0  0  0  1  0  0  0  0  0  0
    0.2797    1.6859    2.7099 O   0  0  0  0  0  0  0  0  0  0  0  0
   -3.9083   -3.2642    1.8628 H   0  0  0  0  0  0  0  0  0  0  0  0
   -4.4872   -3.8706    0.3016 H   0  0  0  0  0  0  0  0  0  0  0  0
   -2.8123   -4.1668    0.7976 H   0  0  0  0  0  0  0  0  0  0  0  0
   -2.9675   -2.3351   -0.9023 H   0  0  0  0  0  0  0  0  0  0  0  0
   -4.0621   -1.4474    0.1471 H   0  0  0  0  0  0  0  0  0  0  0  0
   -1.1915   -2.2368    0.8742 H   0  0  0  0  0  0  0  0  0  0  0  0
   -2.2662   -1.2738    1.8945 H   0  0  0  0  0  0  0  0  0  0  0  0
   -2.0611    1.3220    1.4967 H   0  0  0  0  0  0  0  0  0  0  0  0
   -3.4153    0.6932    0.5891 H   0  0  0  0  0  0  0  0  0  0  0  0
   -1.1654    2.3626   -0.6390 H   0  0  0  0  0  0  0  0  0  0  0  0
   -2.5165    1.6599   -1.5265 H   0  0  0  0  0  0  0  0  0  0  0  0
   -4.1193    2.9944   -0.1438 H   0  0  0  0  0  0  0  0  0  0  0  0
   -2.7573    3.6887    0.7583 H   0  0  0  0  0  0  0  0  0  0  0  0
   -2.9448    4.0320   -0.9702 H   0  0  0  0  0  0  0  0  0  0  0  0
    2.7533    0.6800    1.5759 H   0  0  0  0  0  0  0  0  0  0  0  0
    2.1495   -0.5422   -2.5094 H   0  0  0  0  0  0  0  0  0  0  0  0
    4.3072   -0.0268   -1.8393 H   0  0  0  0  0  0  0  0  0  0  0  0
    4.6116   -1.7782   -0.0937 H   0  0  0  0  0  0  0  0  0  0  0  0
    4.8742   -0.5268    1.1296 H   0  0  0  0  0  0  0  0  0  0  0  0
    6.0094   -0.6982   -0.2157 H   0  0  0  0  0  0  0  0  0  0  0  0
    5.6670    1.7612   -0.8751 H   0  0  0  0  0  0  0  0  0  0  0  0
    4.5274    1.9871    0.4583 H   0  0  0  0  0  0  0  0  0  0  0  0
    4.0343    2.3650   -1.1988 H   0  0  0  0  0  0  0  0  0  0  0  0
  1  2  1  0
  2  3  1  0
  3  4  1  0
  4  5  1  0
  5  6  1  0
  6  7  1  0
  4  8  1  0
  8  9  2  0
  9 10  1  0
 10 11  2  0
 11 12  1  0
 12 13  2  0
 13 14  1  0
 14 15  1  0
 14 16  2  0
 11 17  1  0
 17 18  1  0
 17 19  1  0
  9 20  1  0
 20 21  1  0
 20 22  2  0
 13  8  1  0
  1 23  1  0
  1 24  1  0
  1 25  1  0
  2 26  1  0
  2 27  1  0
  3 28  1  0
  3 29  1  0
  5 30  1  0
  5 31  1  0
  6 32  1  0
  6 33  1  0
  7 34  1  0
  7 35  1  0
  7 36  1  0
 10 37  1  0
 12 38  1  0
 17 39  1  0
 18 40  1  0
 18 41  1  0
 18 42  1  0
 19 43  1  0
 19 44  1  0
 19 45  1  0
M  CHG  4  14   1  15  -1  20   1  21  -1
M  END
>  <Energy>  (3) 
123.60605189211364

>  <Real charge>  (3) 
0

>  <Mult>  (3) 
1

$$$$
mol_304 46
     RDKit          3D

 45 45  0  0  0  0  0  0  0  0999 V2000
   -3.5111    3.4896    0.9275 C   0  0  0  0  0  0  0  0  0  0  0  0
   -3.0472    2.0456    1.0343 C   0  0  0  0  0  0  0  0  0  0  0  0
   -2.0601    1.6922   -0.0814 C   0  0  0  0  0  0  0  0  0  0  0  0
   -1.5872    0.2984    0.0809 N   0  0  0  0  0  0  0  0  0  0  0  0
   -2.4783   -0.7383   -0.4866 C   0  0  0  0  0  0  0  0  0  0  0  0
   -2.1910   -2.1215    0.1020 C   0  0  0  0  0  0  0  0  0  0  0  0
   -3.1671   -3.1617   -0.4254 C   0  0  0  0  0  0  0  0  0  0  0  0
   -0.2039    0.1487   -0.1217 C   0  0  0  0  0  0  0  0  0  0  0  0
    0.4604    0.1201   -1.3613 C   0  0  0  0  0  0  0  0  0  0  0  0
    1.8543   -0.0670   -1.4912 C   0  0  0  0  0  0  0  0  0  0  0  0
    2.6616   -0.2232   -0.3584 C   0  0  0  0  0  0  0  0  0  0  0  0
    2.0443   -0.1785    0.8951 C   0  0  0  0  0  0  0  0  0  0  0  0
    0.6514    0.0070    0.9895 C   0  0  0  0  0  0  0  0  0  0  0  0
    0.1010    0.0479    2.3281 N   0  0  0  0  0  4  0  0  0  0  0  0
   -0.1392   -1.0398    2.8705 O   0  0  0  0  0  1  0  0  0  0  0  0
   -0.0077    1.1642    2.8550 O   0  0  0  0  0  0  0  0  0  0  0  0
    4.1587   -0.4251   -0.5110 C   0  0  0  0  0  0  0  0  0  0  0  0
    4.9473    0.7227    0.1241 C   0  0  0  0  0  0  0  0  0  0  0  0
    4.6048   -1.7741    0.0582 C   0  0  0  0  0  0  0  0  0  0  0  0
   -0.2565    0.3152   -2.6022 N   0  0  0  0  0  4  0  0  0  0  0  0
   -0.6178    1.4676   -2.8741 O   0  0  0  0  0  1  0  0  0  0  0  0
   -0.4118   -0.6817   -3.3208 O   0  0  0  0  0  0  0  0  0  0  0  0
   -4.2166    3.7214    1.7315 H   0  0  0  0  0  0  0  0  0  0  0  0
   -2.6658    4.1804    1.0083 H   0  0  0  0  0  0  0  0  0  0  0  0
   -4.0135    3.6702   -0.0282 H   0  0  0  0  0  0  0  0  0  0  0  0
   -2.5800    1.8887    2.0129 H   0  0  0  0  0  0  0  0  0  0  0  0
   -3.9220    1.3872    0.9956 H   0  0  0  0  0  0  0  0  0  0  0  0
   -1.2207    2.3993   -0.0393 H   0  0  0  0  0  0  0  0  0  0  0  0
   -2.5421    1.8174   -1.0586 H   0  0  0  0  0  0  0  0  0  0  0  0
   -2.4217   -0.7628   -1.5787 H   0  0  0  0  0  0  0  0  0  0  0  0
   -3.5170   -0.4805   -0.2469 H   0  0  0  0  0  0  0  0  0  0  0  0
   -1.1716   -2.4414   -0.1414 H   0  0  0  0  0  0  0  0  0  0  0  0
   -2.2634   -2.0827    1.1951 H   0  0  0  0  0  0  0  0  0  0  0  0
   -3.0979   -3.2468   -1.5146 H   0  0  0  0  0  0  0  0  0  0  0  0
   -2.9457   -4.1425    0.0069 H   0  0  0  0  0  0  0  0  0  0  0  0
   -4.1979   -2.9009   -0.1651 H   0  0  0  0  0  0  0  0  0  0  0  0
    2.3032   -0.0849   -2.4847 H   0  0  0  0  0  0  0  0  0  0  0  0
    2.6340   -0.2875    1.8046 H   0  0  0  0  0  0  0  0  0  0  0  0
    4.4026   -0.4309   -1.5817 H   0  0  0  0  0  0  0  0  0  0  0  0
    4.8050    0.7665    1.2094 H   0  0  0  0  0  0  0  0  0  0  0  0
    4.6374    1.6878   -0.2922 H   0  0  0  0  0  0  0  0  0  0  0  0
    6.0195    0.6045   -0.0660 H   0  0  0  0  0  0  0  0  0  0  0  0
    4.0483   -2.5972   -0.4038 H   0  0  0  0  0  0  0  0  0  0  0  0
    5.6702   -1.9399   -0.1351 H   0  0  0  0  0  0  0  0  0  0  0  0
    4.4506   -1.8335    1.1411 H   0  0  0  0  0  0  0  0  0  0  0  0
  1  2  1  0
  2  3  1  0
  3  4  1  0
  4  5  1  0
  5  6  1  0
  6  7  1  0
  4  8  1  0
  8  9  2  0
  9 10  1  0
 10 11  2  0
 11 12  1  0
 12 13  2  0
 13 14  1  0
 14 15  1  0
 14 16  2  0
 11 17  1  0
 17 18  1  0
 17 19  1  0
  9 20  1  0
 20 21  1  0
 20 22  2  0
 13  8  1  0
  1 23  1  0
  1 24  1  0
  1 25  1  0
  2 26  1  0
  2 27  1  0
  3 28  1  0
  3 29  1  0
  5 30  1  0
  5 31  1  0
  6 32  1  0
  6 33  1  0
  7 34  1  0
  7 35  1  0
  7 36  1  0
 10 37  1  0
 12 38  1  0
 17 39  1  0
 18 40  1  0
 18 41  1  0
 18 42  1  0
 19 43  1  0
 19 44  1  0
 19 45  1  0
M  CHG  4  14   1  15  -1  20   1  21  -1
M  END
>  <Energy>  (4) 
123.60974816946568

>  <Real charge>  (4) 
0

>  <Mult>  (4) 
1

$$$$
mol_304 212
     RDKit          3D

 45 45  0  0  0  0  0  0  0  0999 V2000
   -3.6678   -2.9472   -0.1118 C   0  0  0  0  0  0  0  0  0  0  0  0
   -2.8944   -1.7298   -0.5924 C   0  0  0  0  0  0  0  0  0  0  0  0
   -2.1137   -1.0761    0.5499 C   0  0  0  0  0  0  0  0  0  0  0  0
   -1.4394    0.1432    0.0577 N   0  0  0  0  0  0  0  0  0  0  0  0
   -1.9577    1.4369    0.5500 C   0  0  0  0  0  0  0  0  0  0  0  0
   -3.2822    1.7795   -0.1343 C   0  0  0  0  0  0  0  0  0  0  0  0
   -3.7726    3.1623    0.2645 C   0  0  0  0  0  0  0  0  0  0  0  0
   -0.0389    0.0693   -0.0225 C   0  0  0  0  0  0  0  0  0  0  0  0
    0.5967    0.0567   -1.2778 C   0  0  0  0  0  0  0  0  0  0  0  0
    1.9914   -0.0445   -1.4483 C   0  0  0  0  0  0  0  0  0  0  0  0
    2.8322   -0.1250   -0.3327 C   0  0  0  0  0  0  0  0  0  0  0  0
    2.2432   -0.0932    0.9373 C   0  0  0  0  0  0  0  0  0  0  0  0
    0.8428    0.0041    1.0718 C   0  0  0  0  0  0  0  0  0  0  0  0
    0.3435    0.0562    2.4276 N   0  0  0  0  0  4  0  0  0  0  0  0
    0.0921   -1.0237    2.9785 O   0  0  0  0  0  1  0  0  0  0  0  0
    0.2495    1.1761    2.9474 O   0  0  0  0  0  0  0  0  0  0  0  0
    4.3354   -0.2324   -0.5196 C   0  0  0  0  0  0  0  0  0  0  0  0
    5.0613    0.9804    0.0675 C   0  0  0  0  0  0  0  0  0  0  0  0
    4.8838   -1.5345    0.0692 C   0  0  0  0  0  0  0  0  0  0  0  0
   -0.1952    0.1703   -2.4859 N   0  0  0  0  0  4  0  0  0  0  0  0
   -0.6103    1.2985   -2.7864 O   0  0  0  0  0  1  0  0  0  0  0  0
   -0.3273   -0.8574   -3.1658 O   0  0  0  0  0  0  0  0  0  0  0  0
   -4.2121   -3.4034   -0.9446 H   0  0  0  0  0  0  0  0  0  0  0  0
   -4.3949   -2.6707    0.6584 H   0  0  0  0  0  0  0  0  0  0  0  0
   -2.9930   -3.7008    0.3064 H   0  0  0  0  0  0  0  0  0  0  0  0
   -2.2045   -2.0356   -1.3868 H   0  0  0  0  0  0  0  0  0  0  0  0
   -3.5925   -1.0140   -1.0400 H   0  0  0  0  0  0  0  0  0  0  0  0
   -2.7937   -0.8299    1.3746 H   0  0  0  0  0  0  0  0  0  0  0  0
   -1.3969   -1.8082    0.9412 H   0  0  0  0  0  0  0  0  0  0  0  0
   -2.0988    1.4068    1.6367 H   0  0  0  0  0  0  0  0  0  0  0  0
   -1.2398    2.2399    0.3353 H   0  0  0  0  0  0  0  0  0  0  0  0
   -3.1639    1.7375   -1.2234 H   0  0  0  0  0  0  0  0  0  0  0  0
   -4.0480    1.0427    0.1327 H   0  0  0  0  0  0  0  0  0  0  0  0
   -3.0518    3.9334   -0.0256 H   0  0  0  0  0  0  0  0  0  0  0  0
   -3.9282    3.2261    1.3462 H   0  0  0  0  0  0  0  0  0  0  0  0
   -4.7237    3.3841   -0.2295 H   0  0  0  0  0  0  0  0  0  0  0  0
    2.4104   -0.0553   -2.4543 H   0  0  0  0  0  0  0  0  0  0  0  0
    2.8659   -0.1410    1.8303 H   0  0  0  0  0  0  0  0  0  0  0  0
    4.5527   -0.2493   -1.5959 H   0  0  0  0  0  0  0  0  0  0  0  0
    6.1342    0.9279   -0.1473 H   0  0  0  0  0  0  0  0  0  0  0  0
    4.6783    1.9123   -0.3634 H   0  0  0  0  0  0  0  0  0  0  0  0
    4.9427    1.0423    1.1548 H   0  0  0  0  0  0  0  0  0  0  0  0
    4.7610   -1.5764    1.1569 H   0  0  0  0  0  0  0  0  0  0  0  0
    5.9526   -1.6349   -0.1484 H   0  0  0  0  0  0  0  0  0  0  0  0
    4.3715   -2.4036   -0.3583 H   0  0  0  0  0  0  0  0  0  0  0  0
  1  2  1  0
  2  3  1  0
  3  4  1  0
  4  5  1  0
  5  6  1  0
  6  7  1  0
  4  8  1  0
  8  9  2  0
  9 10  1  0
 10 11  2  0
 11 12  1  0
 12 13  2  0
 13 14  1  0
 14 15  1  0
 14 16  2  0
 11 17  1  0
 17 18  1  0
 17 19  1  0
  9 20  1  0
 20 21  1  0
 20 22  2  0
 13  8  1  0
  1 23  1  0
  1 24  1  0
  1 25  1  0
  2 26  1  0
  2 27  1  0
  3 28  1  0
  3 29  1  0
  5 30  1  0
  5 31  1  0
  6 32  1  0
  6 33  1  0
  7 34  1  0
  7 35  1  0
  7 36  1  0
 10 37  1  0
 12 38  1  0
 17 39  1  0
 18 40  1  0
 18 41  1  0
 18 42  1  0
 19 43  1  0
 19 44  1  0
 19 45  1  0
M  CHG  4  14   1  15  -1  20   1  21  -1
M  END
>  <Energy>  (5) 
123.62424010297667

>  <Real charge>  (5) 
0

>  <Mult>  (5) 
1

$$$$
mol_304 413
     RDKit          3D

 45 45  0  0  0  0  0  0  0  0999 V2000
   -3.7752    2.5385    1.1443 C   0  0  0  0  0  0  0  0  0  0  0  0
   -2.8969    1.2976    1.1467 C   0  0  0  0  0  0  0  0  0  0  0  0
   -2.2099    1.0957   -0.2056 C   0  0  0  0  0  0  0  0  0  0  0  0
   -1.4289   -0.1586   -0.1845 N   0  0  0  0  0  0  0  0  0  0  0  0
   -1.9323   -1.2720   -1.0161 C   0  0  0  0  0  0  0  0  0  0  0  0
   -3.1592   -1.9145   -0.3665 C   0  0  0  0  0  0  0  0  0  0  0  0
   -3.6208   -3.1391   -1.1405 C   0  0  0  0  0  0  0  0  0  0  0  0
   -0.0331   -0.0023   -0.2033 C   0  0  0  0  0  0  0  0  0  0  0  0
    0.7294   -0.3302    0.9329 C   0  0  0  0  0  0  0  0  0  0  0  0
    2.1276   -0.1766    1.0088 C   0  0  0  0  0  0  0  0  0  0  0  0
    2.8418    0.3134   -0.0905 C   0  0  0  0  0  0  0  0  0  0  0  0
    2.1251    0.6313   -1.2504 C   0  0  0  0  0  0  0  0  0  0  0  0
    0.7247    0.4698   -1.2905 C   0  0  0  0  0  0  0  0  0  0  0  0
    0.0888    0.8024   -2.5457 N   0  0  0  0  0  4  0  0  0  0  0  0
   -0.2712    1.9765   -2.7024 O   0  0  0  0  0  1  0  0  0  0  0  0
   -0.0047   -0.1042   -3.3839 O   0  0  0  0  0  0  0  0  0  0  0  0
    4.3492    0.4934   -0.0534 C   0  0  0  0  0  0  0  0  0  0  0  0
    4.7691    1.5026    1.0181 C   0  0  0  0  0  0  0  0  0  0  0  0
    5.0688   -0.8430    0.1437 C   0  0  0  0  0  0  0  0  0  0  0  0
    0.0754   -0.8765    2.1048 N   0  0  0  0  0  4  0  0  0  0  0  0
   -0.0344   -0.1251    3.0843 O   0  0  0  0  0  1  0  0  0  0  0  0
   -0.2505   -2.0714    2.0657 O   0  0  0  0  0  0  0  0  0  0  0  0
   -4.5651    2.4581    0.3907 H   0  0  0  0  0  0  0  0  0  0  0  0
   -4.2502    2.6684    2.1217 H   0  0  0  0  0  0  0  0  0  0  0  0
   -3.1859    3.4360    0.9311 H   0  0  0  0  0  0  0  0  0  0  0  0
   -2.1428    1.3953    1.9357 H   0  0  0  0  0  0  0  0  0  0  0  0
   -3.5080    0.4250    1.4018 H   0  0  0  0  0  0  0  0  0  0  0  0
   -1.5750    1.9677   -0.4038 H   0  0  0  0  0  0  0  0  0  0  0  0
   -2.9603    1.0648   -1.0052 H   0  0  0  0  0  0  0  0  0  0  0  0
   -1.1575   -2.0422   -1.1285 H   0  0  0  0  0  0  0  0  0  0  0  0
   -2.1883   -0.9168   -2.0211 H   0  0  0  0  0  0  0  0  0  0  0  0
   -3.9839   -1.1945   -0.3203 H   0  0  0  0  0  0  0  0  0  0  0  0
   -2.9292   -2.2040    0.6656 H   0  0  0  0  0  0  0  0  0  0  0  0
   -3.8861   -2.8755   -2.1693 H   0  0  0  0  0  0  0  0  0  0  0  0
   -4.5027   -3.5784   -0.6638 H   0  0  0  0  0  0  0  0  0  0  0  0
   -2.8367   -3.9023   -1.1719 H   0  0  0  0  0  0  0  0  0  0  0  0
    2.6474   -0.4465    1.9274 H   0  0  0  0  0  0  0  0  0  0  0  0
    2.6489    1.0041   -2.1307 H   0  0  0  0  0  0  0  0  0  0  0  0
    4.6761    0.8968   -1.0211 H   0  0  0  0  0  0  0  0  0  0  0  0
    5.8486    1.6834    0.9743 H   0  0  0  0  0  0  0  0  0  0  0  0
    4.2621    2.4629    0.8714 H   0  0  0  0  0  0  0  0  0  0  0  0
    4.5320    1.1510    2.0281 H   0  0  0  0  0  0  0  0  0  0  0  0
    6.1543   -0.7078    0.0859 H   0  0  0  0  0  0  0  0  0  0  0  0
    4.8410   -1.2914    1.1169 H   0  0  0  0  0  0  0  0  0  0  0  0
    4.7787   -1.5617   -0.6309 H   0  0  0  0  0  0  0  0  0  0  0  0
  1  2  1  0
  2  3  1  0
  3  4  1  0
  4  5  1  0
  5  6  1  0
  6  7  1  0
  4  8  1  0
  8  9  2  0
  9 10  1  0
 10 11  2  0
 11 12  1  0
 12 13  2  0
 13 14  1  0
 14 15  1  0
 14 16  2  0
 11 17  1  0
 17 18  1  0
 17 19  1  0
  9 20  1  0
 20 21  1  0
 20 22  2  0
 13  8  1  0
  1 23  1  0
  1 24  1  0
  1 25  1  0
  2 26  1  0
  2 27  1  0
  3 28  1  0
  3 29  1  0
  5 30  1  0
  5 31  1  0
  6 32  1  0
  6 33  1  0
  7 34  1  0
  7 35  1  0
  7 36  1  0
 10 37  1  0
 12 38  1  0
 17 39  1  0
 18 40  1  0
 18 41  1  0
 18 42  1  0
 19 43  1  0
 19 44  1  0
 19 45  1  0
M  CHG  4  14   1  15  -1  20   1  21  -1
M  END
>  <Energy>  (6) 
123.62724389917375

>  <Real charge>  (6) 
0

>  <Mult>  (6) 
1

$$$$
mol_304 412
     RDKit          3D

 45 45  0  0  0  0  0  0  0  0999 V2000
   -3.4974   -1.6626   -1.7100 C   0  0  0  0  0  0  0  0  0  0  0  0
   -3.4993   -1.6192   -0.1899 C   0  0  0  0  0  0  0  0  0  0  0  0
   -2.1031   -1.4433    0.4116 C   0  0  0  0  0  0  0  0  0  0  0  0
   -1.4943   -0.1394    0.0579 N   0  0  0  0  0  0  0  0  0  0  0  0
   -2.0642    1.0534    0.7296 C   0  0  0  0  0  0  0  0  0  0  0  0
   -2.8866    1.8773   -0.2633 C   0  0  0  0  0  0  0  0  0  0  0  0
   -3.5092    3.0924    0.4064 C   0  0  0  0  0  0  0  0  0  0  0  0
   -0.0824   -0.1607    0.0348 C   0  0  0  0  0  0  0  0  0  0  0  0
    0.7594   -0.3507    1.1483 C   0  0  0  0  0  0  0  0  0  0  0  0
    2.1682   -0.3561    1.0673 C   0  0  0  0  0  0  0  0  0  0  0  0
    2.8093   -0.1665   -0.1625 C   0  0  0  0  0  0  0  0  0  0  0  0
    2.0104    0.0180   -1.2953 C   0  0  0  0  0  0  0  0  0  0  0  0
    0.6059    0.0147   -1.1804 C   0  0  0  0  0  0  0  0  0  0  0  0
   -0.1342    0.1825   -2.4123 N   0  0  0  0  0  4  0  0  0  0  0  0
   -0.4435   -0.8488   -3.0253 O   0  0  0  0  0  1  0  0  0  0  0  0
   -0.3197    1.3440   -2.8014 O   0  0  0  0  0  0  0  0  0  0  0  0
    4.3224   -0.1651   -0.2896 C   0  0  0  0  0  0  0  0  0  0  0  0
    4.9198   -1.5176    0.1058 C   0  0  0  0  0  0  0  0  0  0  0  0
    4.9538    0.9687    0.5221 C   0  0  0  0  0  0  0  0  0  0  0  0
    0.2125   -0.5698    2.4691 N   0  0  0  0  0  4  0  0  0  0  0  0
    0.1307   -1.7447    2.8517 O   0  0  0  0  0  1  0  0  0  0  0  0
   -0.0904    0.4315    3.1308 O   0  0  0  0  0  0  0  0  0  0  0  0
   -3.1694   -0.7111   -2.1375 H   0  0  0  0  0  0  0  0  0  0  0  0
   -4.5075   -1.8633   -2.0813 H   0  0  0  0  0  0  0  0  0  0  0  0
   -2.8385   -2.4547   -2.0793 H   0  0  0  0  0  0  0  0  0  0  0  0
   -4.1730   -0.8279    0.1547 H   0  0  0  0  0  0  0  0  0  0  0  0
   -3.9164   -2.5636    0.1805 H   0  0  0  0  0  0  0  0  0  0  0  0
   -1.4704   -2.2685    0.0580 H   0  0  0  0  0  0  0  0  0  0  0  0
   -2.1838   -1.5407    1.5002 H   0  0  0  0  0  0  0  0  0  0  0  0
   -2.6923    0.7519    1.5770 H   0  0  0  0  0  0  0  0  0  0  0  0
   -1.2774    1.7021    1.1352 H   0  0  0  0  0  0  0  0  0  0  0  0
   -2.2492    2.2127   -1.0882 H   0  0  0  0  0  0  0  0  0  0  0  0
   -3.6817    1.2702   -0.7068 H   0  0  0  0  0  0  0  0  0  0  0  0
   -4.1827    2.7919    1.2153 H   0  0  0  0  0  0  0  0  0  0  0  0
   -2.7388    3.7478    0.8252 H   0  0  0  0  0  0  0  0  0  0  0  0
   -4.0881    3.6706   -0.3205 H   0  0  0  0  0  0  0  0  0  0  0  0
    2.7568   -0.5115    1.9713 H   0  0  0  0  0  0  0  0  0  0  0  0
    2.4688    0.1604   -2.2737 H   0  0  0  0  0  0  0  0  0  0  0  0
    4.5839    0.0082   -1.3421 H   0  0  0  0  0  0  0  0  0  0  0  0
    4.4775   -2.3283   -0.4840 H   0  0  0  0  0  0  0  0  0  0  0  0
    4.7529   -1.7457    1.1642 H   0  0  0  0  0  0  0  0  0  0  0  0
    6.0010   -1.5269   -0.0696 H   0  0  0  0  0  0  0  0  0  0  0  0
    4.7906    0.8430    1.5980 H   0  0  0  0  0  0  0  0  0  0  0  0
    6.0353    1.0072    0.3525 H   0  0  0  0  0  0  0  0  0  0  0  0
    4.5342    1.9384    0.2319 H   0  0  0  0  0  0  0  0  0  0  0  0
  1  2  1  0
  2  3  1  0
  3  4  1  0
  4  5  1  0
  5  6  1  0
  6  7  1  0
  4  8  1  0
  8  9  2  0
  9 10  1  0
 10 11  2  0
 11 12  1  0
 12 13  2  0
 13 14  1  0
 14 15  1  0
 14 16  2  0
 11 17  1  0
 17 18  1  0
 17 19  1  0
  9 20  1  0
 20 21  1  0
 20 22  2  0
 13  8  1  0
  1 23  1  0
  1 24  1  0
  1 25  1  0
  2 26  1  0
  2 27  1  0
  3 28  1  0
  3 29  1  0
  5 30  1  0
  5 31  1  0
  6 32  1  0
  6 33  1  0
  7 34  1  0
  7 35  1  0
  7 36  1  0
 10 37  1  0
 12 38  1  0
 17 39  1  0
 18 40  1  0
 18 41  1  0
 18 42  1  0
 19 43  1  0
 19 44  1  0
 19 45  1  0
M  CHG  4  14   1  15  -1  20   1  21  -1
M  END
>  <Energy>  (7) 
123.63135547819002

>  <Real charge>  (7) 
0

>  <Mult>  (7) 
1

$$$$
mol_304 352
     RDKit          3D

 45 45  0  0  0  0  0  0  0  0999 V2000
   -3.3877   -1.4356    2.9058 C   0  0  0  0  0  0  0  0  0  0  0  0
   -2.7800   -0.4402    1.9298 C   0  0  0  0  0  0  0  0  0  0  0  0
   -2.0576   -1.1522    0.7843 C   0  0  0  0  0  0  0  0  0  0  0  0
   -1.5014   -0.1598   -0.1667 N   0  0  0  0  0  0  0  0  0  0  0  0
   -2.1881   -0.0505   -1.4752 C   0  0  0  0  0  0  0  0  0  0  0  0
   -3.5514    0.6361   -1.3647 C   0  0  0  0  0  0  0  0  0  0  0  0
   -3.4585    2.0886   -0.9238 C   0  0  0  0  0  0  0  0  0  0  0  0
   -0.0931   -0.1927   -0.2666 C   0  0  0  0  0  0  0  0  0  0  0  0
    0.6699   -1.2225   -0.8515 C   0  0  0  0  0  0  0  0  0  0  0  0
    2.0795   -1.2055   -0.9177 C   0  0  0  0  0  0  0  0  0  0  0  0
    2.8022   -0.1306   -0.3879 C   0  0  0  0  0  0  0  0  0  0  0  0
    2.0828    0.9176    0.1954 C   0  0  0  0  0  0  0  0  0  0  0  0
    0.6753    0.8711    0.2424 C   0  0  0  0  0  0  0  0  0  0  0  0
    0.0200    2.0157    0.8376 N   0  0  0  0  0  4  0  0  0  0  0  0
   -0.0893    2.0204    2.0716 O   0  0  0  0  0  1  0  0  0  0  0  0
   -0.2967    2.9394    0.0750 O   0  0  0  0  0  0  0  0  0  0  0  0
    4.3188   -0.1209   -0.4626 C   0  0  0  0  0  0  0  0  0  0  0  0
    4.8311    1.0457   -1.3108 C   0  0  0  0  0  0  0  0  0  0  0  0
    4.9504   -0.1007    0.9315 C   0  0  0  0  0  0  0  0  0  0  0  0
    0.0340   -2.3784   -1.4440 N   0  0  0  0  0  4  0  0  0  0  0  0
   -0.1233   -2.3609   -2.6722 O   0  0  0  0  0  1  0  0  0  0  0  0
   -0.2637   -3.3119   -0.6876 O   0  0  0  0  0  0  0  0  0  0  0  0
   -2.6160   -2.0755    3.3455 H   0  0  0  0  0  0  0  0  0  0  0  0
   -4.1223   -2.0753    2.4065 H   0  0  0  0  0  0  0  0  0  0  0  0
   -3.8944   -0.9072    3.7194 H   0  0  0  0  0  0  0  0  0  0  0  0
   -2.0788    0.2052    2.4695 H   0  0  0  0  0  0  0  0  0  0  0  0
   -3.5727    0.2088    1.5452 H   0  0  0  0  0  0  0  0  0  0  0  0
   -2.7493   -1.8301    0.2691 H   0  0  0  0  0  0  0  0  0  0  0  0
   -1.2690   -1.7782    1.2209 H   0  0  0  0  0  0  0  0  0  0  0  0
   -1.5724    0.5206   -2.1831 H   0  0  0  0  0  0  0  0  0  0  0  0
   -2.3395   -1.0460   -1.9077 H   0  0  0  0  0  0  0  0  0  0  0  0
   -4.0321    0.6060   -2.3502 H   0  0  0  0  0  0  0  0  0  0  0  0
   -4.2090    0.0862   -0.6834 H   0  0  0  0  0  0  0  0  0  0  0  0
   -3.0629    2.1744    0.0920 H   0  0  0  0  0  0  0  0  0  0  0  0
   -4.4519    2.5483   -0.9336 H   0  0  0  0  0  0  0  0  0  0  0  0
   -2.8142    2.6627   -1.5970 H   0  0  0  0  0  0  0  0  0  0  0  0
    2.6057   -2.0367   -1.3876 H   0  0  0  0  0  0  0  0  0  0  0  0
    2.6046    1.7784    0.6123 H   0  0  0  0  0  0  0  0  0  0  0  0
    4.6497   -1.0463   -0.9526 H   0  0  0  0  0  0  0  0  0  0  0  0
    4.3892    1.0244   -2.3133 H   0  0  0  0  0  0  0  0  0  0  0  0
    4.5915    2.0154   -0.8612 H   0  0  0  0  0  0  0  0  0  0  0  0
    5.9193    0.9911   -1.4230 H   0  0  0  0  0  0  0  0  0  0  0  0
    6.0407   -0.1791    0.8610 H   0  0  0  0  0  0  0  0  0  0  0  0
    4.5922   -0.9417    1.5357 H   0  0  0  0  0  0  0  0  0  0  0  0
    4.7182    0.8224    1.4736 H   0  0  0  0  0  0  0  0  0  0  0  0
  1  2  1  0
  2  3  1  0
  3  4  1  0
  4  5  1  0
  5  6  1  0
  6  7  1  0
  4  8  1  0
  8  9  2  0
  9 10  1  0
 10 11  2  0
 11 12  1  0
 12 13  2  0
 13 14  1  0
 14 15  1  0
 14 16  2  0
 11 17  1  0
 17 18  1  0
 17 19  1  0
  9 20  1  0
 20 21  1  0
 20 22  2  0
 13  8  1  0
  1 23  1  0
  1 24  1  0
  1 25  1  0
  2 26  1  0
  2 27  1  0
  3 28  1  0
  3 29  1  0
  5 30  1  0
  5 31  1  0
  6 32  1  0
  6 33  1  0
  7 34  1  0
  7 35  1  0
  7 36  1  0
 10 37  1  0
 12 38  1  0
 17 39  1  0
 18 40  1  0
 18 41  1  0
 18 42  1  0
 19 43  1  0
 19 44  1  0
 19 45  1  0
M  CHG  4  14   1  15  -1  20   1  21  -1
M  END
>  <Energy>  (8) 
123.63458725765979

>  <Real charge>  (8) 
0

>  <Mult>  (8) 
1

$$$$
mol_304 2
     RDKit          3D

 45 45  0  0  0  0  0  0  0  0999 V2000
   -3.3651   -2.7476   -0.5564 C   0  0  0  0  0  0  0  0  0  0  0  0
   -2.3848   -1.7152   -0.0204 C   0  0  0  0  0  0  0  0  0  0  0  0
   -2.4195   -0.4304   -0.8530 C   0  0  0  0  0  0  0  0  0  0  0  0
   -1.5372    0.6295   -0.3069 N   0  0  0  0  0  0  0  0  0  0  0  0
   -1.6914    1.9655   -0.9354 C   0  0  0  0  0  0  0  0  0  0  0  0
   -3.0187    2.6414   -0.5739 C   0  0  0  0  0  0  0  0  0  0  0  0
   -3.1897    2.8908    0.9155 C   0  0  0  0  0  0  0  0  0  0  0  0
   -0.1848    0.2893   -0.0900 C   0  0  0  0  0  0  0  0  0  0  0  0
    0.3574    0.3800    1.2087 C   0  0  0  0  0  0  0  0  0  0  0  0
    1.6900    0.0568    1.5339 C   0  0  0  0  0  0  0  0  0  0  0  0
    2.5675   -0.3851    0.5406 C   0  0  0  0  0  0  0  0  0  0  0  0
    2.0776   -0.4830   -0.7664 C   0  0  0  0  0  0  0  0  0  0  0  0
    0.7372   -0.1472   -1.0602 C   0  0  0  0  0  0  0  0  0  0  0  0
    0.3700   -0.2629   -2.4530 N   0  0  0  0  0  4  0  0  0  0  0  0
    0.3983    0.7714   -3.1324 O   0  0  0  0  0  1  0  0  0  0  0  0
    0.1075   -1.3990   -2.8702 O   0  0  0  0  0  0  0  0  0  0  0  0
    4.0021   -0.7368    0.8919 C   0  0  0  0  0  0  0  0  0  0  0  0
    4.9963    0.1790    0.1740 C   0  0  0  0  0  0  0  0  0  0  0  0
    4.3073   -2.2082    0.6012 C   0  0  0  0  0  0  0  0  0  0  0  0
   -0.4715    0.8278    2.3077 N   0  0  0  0  0  4  0  0  0  0  0  0
   -0.3815    2.0236    2.6204 O   0  0  0  0  0  1  0  0  0  0  0  0
   -1.1355   -0.0318    2.9028 O   0  0  0  0  0  0  0  0  0  0  0  0
   -3.3269   -3.6573    0.0509 H   0  0  0  0  0  0  0  0  0  0  0  0
   -3.1231   -3.0179   -1.5893 H   0  0  0  0  0  0  0  0  0  0  0  0
   -4.3908   -2.3659   -0.5315 H   0  0  0  0  0  0  0  0  0  0  0  0
   -2.6369   -1.4901    1.0220 H   0  0  0  0  0  0  0  0  0  0  0  0
   -1.3814   -2.1548   -0.0215 H   0  0  0  0  0  0  0  0  0  0  0  0
   -2.1892   -0.6379   -1.9022 H   0  0  0  0  0  0  0  0  0  0  0  0
   -3.4523   -0.0654   -0.8407 H   0  0  0  0  0  0  0  0  0  0  0  0
   -1.6396    1.8739   -2.0259 H   0  0  0  0  0  0  0  0  0  0  0  0
   -0.8750    2.6320   -0.6261 H   0  0  0  0  0  0  0  0  0  0  0  0
   -3.0648    3.6059   -1.0944 H   0  0  0  0  0  0  0  0  0  0  0  0
   -3.8682    2.0564   -0.9410 H   0  0  0  0  0  0  0  0  0  0  0  0
   -3.2255    1.9522    1.4760 H   0  0  0  0  0  0  0  0  0  0  0  0
   -2.3719    3.5036    1.3061 H   0  0  0  0  0  0  0  0  0  0  0  0
   -4.1272    3.4248    1.1014 H   0  0  0  0  0  0  0  0  0  0  0  0
    2.0301    0.1528    2.5648 H   0  0  0  0  0  0  0  0  0  0  0  0
    2.7341   -0.8174   -1.5699 H   0  0  0  0  0  0  0  0  0  0  0  0
    4.1442   -0.5853    1.9703 H   0  0  0  0  0  0  0  0  0  0  0  0
    4.7861    1.2321    0.3917 H   0  0  0  0  0  0  0  0  0  0  0  0
    6.0201   -0.0329    0.5011 H   0  0  0  0  0  0  0  0  0  0  0  0
    4.9614    0.0497   -0.9132 H   0  0  0  0  0  0  0  0  0  0  0  0
    4.2453   -2.4362   -0.4685 H   0  0  0  0  0  0  0  0  0  0  0  0
    5.3175   -2.4653    0.9376 H   0  0  0  0  0  0  0  0  0  0  0  0
    3.6026   -2.8648    1.1237 H   0  0  0  0  0  0  0  0  0  0  0  0
  1  2  1  0
  2  3  1  0
  3  4  1  0
  4  5  1  0
  5  6  1  0
  6  7  1  0
  4  8  1  0
  8  9  2  0
  9 10  1  0
 10 11  2  0
 11 12  1  0
 12 13  2  0
 13 14  1  0
 14 15  1  0
 14 16  2  0
 11 17  1  0
 17 18  1  0
 17 19  1  0
  9 20  1  0
 20 21  1  0
 20 22  2  0
 13  8  1  0
  1 23  1  0
  1 24  1  0
  1 25  1  0
  2 26  1  0
  2 27  1  0
  3 28  1  0
  3 29  1  0
  5 30  1  0
  5 31  1  0
  6 32  1  0
  6 33  1  0
  7 34  1  0
  7 35  1  0
  7 36  1  0
 10 37  1  0
 12 38  1  0
 17 39  1  0
 18 40  1  0
 18 41  1  0
 18 42  1  0
 19 43  1  0
 19 44  1  0
 19 45  1  0
M  CHG  4  14   1  15  -1  20   1  21  -1
M  END
>  <Energy>  (9) 
124.14387282309497

>  <Real charge>  (9) 
0

>  <Mult>  (9) 
1

$$$$
mol_304 328
     RDKit          3D

 45 45  0  0  0  0  0  0  0  0999 V2000
   -2.3071   -3.7360   -0.4907 C   0  0  0  0  0  0  0  0  0  0  0  0
   -1.6116   -2.3911   -0.6367 C   0  0  0  0  0  0  0  0  0  0  0  0
   -2.2902   -1.3180    0.2195 C   0  0  0  0  0  0  0  0  0  0  0  0
   -1.6895    0.0256    0.0355 N   0  0  0  0  0  0  0  0  0  0  0  0
   -2.4376    1.1434    0.6635 C   0  0  0  0  0  0  0  0  0  0  0  0
   -3.7605    1.4460   -0.0490 C   0  0  0  0  0  0  0  0  0  0  0  0
   -3.5895    1.8607   -1.5011 C   0  0  0  0  0  0  0  0  0  0  0  0
   -0.2955    0.1363    0.2261 C   0  0  0  0  0  0  0  0  0  0  0  0
    0.4163   -0.1532    1.4057 C   0  0  0  0  0  0  0  0  0  0  0  0
    1.8192   -0.0300    1.5197 C   0  0  0  0  0  0  0  0  0  0  0  0
    2.5873    0.4077    0.4355 C   0  0  0  0  0  0  0  0  0  0  0  0
    1.9202    0.7190   -0.7522 C   0  0  0  0  0  0  0  0  0  0  0  0
    0.5201    0.5813   -0.8348 C   0  0  0  0  0  0  0  0  0  0  0  0
   -0.0758    0.9289   -2.1073 N   0  0  0  0  0  4  0  0  0  0  0  0
   -0.2329    0.0142   -2.9275 O   0  0  0  0  0  1  0  0  0  0  0  0
   -0.2998    2.1314   -2.3063 O   0  0  0  0  0  0  0  0  0  0  0  0
    4.0940    0.5370    0.5703 C   0  0  0  0  0  0  0  0  0  0  0  0
    4.8266   -0.3936   -0.3992 C   0  0  0  0  0  0  0  0  0  0  0  0
    4.5517    1.9860    0.3867 C   0  0  0  0  0  0  0  0  0  0  0  0
   -0.2586   -0.5849    2.6083 N   0  0  0  0  0  4  0  0  0  0  0  0
   -0.2387   -1.7980    2.8567 O   0  0  0  0  0  1  0  0  0  0  0  0
   -0.7568    0.2944    3.3230 O   0  0  0  0  0  0  0  0  0  0  0  0
   -3.3531   -3.6741   -0.8075 H   0  0  0  0  0  0  0  0  0  0  0  0
   -2.2816   -4.0791    0.5486 H   0  0  0  0  0  0  0  0  0  0  0  0
   -1.8093   -4.4891   -1.1096 H   0  0  0  0  0  0  0  0  0  0  0  0
   -1.6290   -2.0921   -1.6908 H   0  0  0  0  0  0  0  0  0  0  0  0
   -0.5602   -2.5104   -0.3530 H   0  0  0  0  0  0  0  0  0  0  0  0
   -2.3003   -1.6079    1.2744 H   0  0  0  0  0  0  0  0  0  0  0  0
   -3.3407   -1.2758   -0.0884 H   0  0  0  0  0  0  0  0  0  0  0  0
   -1.8325    2.0600    0.6610 H   0  0  0  0  0  0  0  0  0  0  0  0
   -2.6590    0.9041    1.7095 H   0  0  0  0  0  0  0  0  0  0  0  0
   -4.4380    0.5877    0.0030 H   0  0  0  0  0  0  0  0  0  0  0  0
   -4.2599    2.2619    0.4879 H   0  0  0  0  0  0  0  0  0  0  0  0
   -2.9432    2.7395   -1.5837 H   0  0  0  0  0  0  0  0  0  0  0  0
   -3.1617    1.0513   -2.0997 H   0  0  0  0  0  0  0  0  0  0  0  0
   -4.5613    2.1171   -1.9351 H   0  0  0  0  0  0  0  0  0  0  0  0
    2.3044   -0.2756    2.4649 H   0  0  0  0  0  0  0  0  0  0  0  0
    2.4767    1.0685   -1.6213 H   0  0  0  0  0  0  0  0  0  0  0  0
    4.3807    0.2342    1.5862 H   0  0  0  0  0  0  0  0  0  0  0  0
    5.9082   -0.3498   -0.2314 H   0  0  0  0  0  0  0  0  0  0  0  0
    4.5078   -1.4328   -0.2607 H   0  0  0  0  0  0  0  0  0  0  0  0
    4.6415   -0.1245   -1.4448 H   0  0  0  0  0  0  0  0  0  0  0  0
    4.3541    2.3530   -0.6263 H   0  0  0  0  0  0  0  0  0  0  0  0
    5.6282    2.0755    0.5685 H   0  0  0  0  0  0  0  0  0  0  0  0
    4.0367    2.6511    1.0889 H   0  0  0  0  0  0  0  0  0  0  0  0
  1  2  1  0
  2  3  1  0
  3  4  1  0
  4  5  1  0
  5  6  1  0
  6  7  1  0
  4  8  1  0
  8  9  2  0
  9 10  1  0
 10 11  2  0
 11 12  1  0
 12 13  2  0
 13 14  1  0
 14 15  1  0
 14 16  2  0
 11 17  1  0
 17 18  1  0
 17 19  1  0
  9 20  1  0
 20 21  1  0
 20 22  2  0
 13  8  1  0
  1 23  1  0
  1 24  1  0
  1 25  1  0
  2 26  1  0
  2 27  1  0
  3 28  1  0
  3 29  1  0
  5 30  1  0
  5 31  1  0
  6 32  1  0
  6 33  1  0
  7 34  1  0
  7 35  1  0
  7 36  1  0
 10 37  1  0
 12 38  1  0
 17 39  1  0
 18 40  1  0
 18 41  1  0
 18 42  1  0
 19 43  1  0
 19 44  1  0
 19 45  1  0
M  CHG  4  14   1  15  -1  20   1  21  -1
M  END
>  <Energy>  (10) 
124.14775396105429

>  <Real charge>  (10) 
0

>  <Mult>  (10) 
1

$$$$
