mol_359 58
     RDKit          3D

 30 32  0  0  0  0  0  0  0  0999 V2000
   -0.1113    2.9256    0.1395 C   0  0  0  0  0  0  0  0  0  0  0  0
   -0.0537    1.4102    0.0689 C   0  0  0  0  0  0  0  0  0  0  0  0
   -1.2673    0.6594    0.0376 C   0  0  0  0  0  0  0  0  0  0  0  0
   -2.5459    1.2626    0.1748 C   0  0  0  0  0  0  0  0  0  0  0  0
   -3.7325    0.5310    0.1457 C   0  0  0  0  0  0  0  0  0  0  0  0
   -3.6785   -0.8385   -0.0118 C   0  0  0  0  0  0  0  0  0  0  0  0
   -2.4385   -1.4632   -0.1387 C   0  0  0  0  0  0  0  0  0  0  0  0
   -1.2119   -0.7472   -0.1242 C   0  0  0  0  0  0  0  0  0  0  0  0
    0.0566   -1.3889   -0.2531 C   0  0  0  0  0  0  0  0  0  0  0  0
    0.1174   -2.8807   -0.5283 C   0  0  0  0  0  0  0  0  0  0  0  0
    1.2679   -0.6552   -0.0746 C   0  0  0  0  0  0  0  0  0  0  0  0
    2.5438   -1.2783   -0.0391 C   0  0  0  0  0  0  0  0  0  0  0  0
    3.7280   -0.5636    0.1362 C   0  0  0  0  0  0  0  0  0  0  0  0
    3.6741    0.8059    0.2937 C   0  0  0  0  0  0  0  0  0  0  0  0
    2.4364    1.4475    0.2744 C   0  0  0  0  0  0  0  0  0  0  0  0
    1.2125    0.7514    0.0871 C   0  0  0  0  0  0  0  0  0  0  0  0
   -0.1443    3.2531    1.1828 H   0  0  0  0  0  0  0  0  0  0  0  0
   -0.9752    3.3287   -0.3968 H   0  0  0  0  0  0  0  0  0  0  0  0
    0.7410    3.3924   -0.3625 H   0  0  0  0  0  0  0  0  0  0  0  0
   -2.6455    2.3334    0.3316 H   0  0  0  0  0  0  0  0  0  0  0  0
   -4.6882    1.0352    0.2572 H   0  0  0  0  0  0  0  0  0  0  0  0
   -4.5911   -1.4274   -0.0261 H   0  0  0  0  0  0  0  0  0  0  0  0
   -2.4532   -2.5460   -0.2296 H   0  0  0  0  0  0  0  0  0  0  0  0
    0.9989   -3.1538   -1.1155 H   0  0  0  0  0  0  0  0  0  0  0  0
   -0.7172   -3.2175   -1.1498 H   0  0  0  0  0  0  0  0  0  0  0  0
    0.1193   -3.4377    0.4132 H   0  0  0  0  0  0  0  0  0  0  0  0
    2.6423   -2.3569   -0.1278 H   0  0  0  0  0  0  0  0  0  0  0  0
    4.6816   -1.0834    0.1593 H   0  0  0  0  0  0  0  0  0  0  0  0
    4.5846    1.3793    0.4425 H   0  0  0  0  0  0  0  0  0  0  0  0
    2.4500    2.5224    0.4334 H   0  0  0  0  0  0  0  0  0  0  0  0
  1  2  1  0
  2  3  2  0
  3  4  1  0
  4  5  2  0
  5  6  1  0
  6  7  2  0
  7  8  1  0
  8  9  2  0
  9 10  1  0
  9 11  1  0
 11 12  2  0
 12 13  1  0
 13 14  2  0
 14 15  1  0
 15 16  2  0
 16  2  1  0
  8  3  1  0
 16 11  1  0
  1 17  1  0
  1 18  1  0
  1 19  1  0
  4 20  1  0
  5 21  1  0
  6 22  1  0
  7 23  1  0
 10 24  1  0
 10 25  1  0
 10 26  1  0
 12 27  1  0
 13 28  1  0
 14 29  1  0
 15 30  1  0
M  END
>  <Energy>  (1) 
64.77552015404856

>  <Real charge>  (1) 
0

>  <Mult>  (1) 
1

$$$$
mol_359 17
     RDKit          3D

 30 32  0  0  0  0  0  0  0  0999 V2000
    0.6487   -2.8563   -0.0603 C   0  0  0  0  0  0  0  0  0  0  0  0
    0.3128   -1.3752   -0.0192 C   0  0  0  0  0  0  0  0  0  0  0  0
    1.3695   -0.4155    0.0421 C   0  0  0  0  0  0  0  0  0  0  0  0
    2.7423   -0.7806    0.0051 C   0  0  0  0  0  0  0  0  0  0  0  0
    3.7753    0.1493    0.1145 C   0  0  0  0  0  0  0  0  0  0  0  0
    3.4677    1.4849    0.2666 C   0  0  0  0  0  0  0  0  0  0  0  0
    2.1308    1.8801    0.2795 C   0  0  0  0  0  0  0  0  0  0  0  0
    1.0545    0.9625    0.1428 C   0  0  0  0  0  0  0  0  0  0  0  0
   -0.3128    1.3752    0.1054 C   0  0  0  0  0  0  0  0  0  0  0  0
   -0.6487    2.8563    0.1465 C   0  0  0  0  0  0  0  0  0  0  0  0
   -1.3695    0.4155    0.0441 C   0  0  0  0  0  0  0  0  0  0  0  0
   -2.7423    0.7806    0.0812 C   0  0  0  0  0  0  0  0  0  0  0  0
   -3.7753   -0.1493   -0.0283 C   0  0  0  0  0  0  0  0  0  0  0  0
   -3.4677   -1.4849   -0.1804 C   0  0  0  0  0  0  0  0  0  0  0  0
   -2.1308   -1.8801   -0.1933 C   0  0  0  0  0  0  0  0  0  0  0  0
   -1.0545   -0.9625   -0.0566 C   0  0  0  0  0  0  0  0  0  0  0  0
    0.7652   -3.1854   -1.0971 H   0  0  0  0  0  0  0  0  0  0  0  0
   -0.1128   -3.4671    0.4322 H   0  0  0  0  0  0  0  0  0  0  0  0
    1.5578   -3.0901    0.5002 H   0  0  0  0  0  0  0  0  0  0  0  0
    3.0433   -1.8169   -0.1212 H   0  0  0  0  0  0  0  0  0  0  0  0
    4.8107   -0.1780    0.0867 H   0  0  0  0  0  0  0  0  0  0  0  0
    4.2573    2.2240    0.3687 H   0  0  0  0  0  0  0  0  0  0  0  0
    1.9477    2.9430    0.4106 H   0  0  0  0  0  0  0  0  0  0  0  0
    0.1128    3.4671   -0.3460 H   0  0  0  0  0  0  0  0  0  0  0  0
   -0.7651    3.1854    1.1833 H   0  0  0  0  0  0  0  0  0  0  0  0
   -1.5578    3.0901   -0.4140 H   0  0  0  0  0  0  0  0  0  0  0  0
   -3.0433    1.8169    0.2074 H   0  0  0  0  0  0  0  0  0  0  0  0
   -4.8107    0.1780   -0.0005 H   0  0  0  0  0  0  0  0  0  0  0  0
   -4.2573   -2.2240   -0.2825 H   0  0  0  0  0  0  0  0  0  0  0  0
   -1.9477   -2.9430   -0.3244 H   0  0  0  0  0  0  0  0  0  0  0  0
  1  2  1  0
  2  3  2  0
  3  4  1  0
  4  5  2  0
  5  6  1  0
  6  7  2  0
  7  8  1  0
  8  9  2  0
  9 10  1  0
  9 11  1  0
 11 12  2  0
 12 13  1  0
 13 14  2  0
 14 15  1  0
 15 16  2  0
 16  2  1  0
  8  3  1  0
 16 11  1  0
  1 17  1  0
  1 18  1  0
  1 19  1  0
  4 20  1  0
  5 21  1  0
  6 22  1  0
  7 23  1  0
 10 24  1  0
 10 25  1  0
 10 26  1  0
 12 27  1  0
 13 28  1  0
 14 29  1  0
 15 30  1  0
M  END
>  <Energy>  (2) 
65.24552146765289

>  <Real charge>  (2) 
0

>  <Mult>  (2) 
1

$$$$
