mol_538 229
     RDKit          3D

 38 39  0  0  0  0  0  0  0  0999 V2000
   -2.8450   -0.5110    3.0881 O   0  0  0  0  0  0  0  0  0  0  0  0
   -3.4941   -0.0987    1.8819 C   0  0  0  0  0  0  0  0  0  0  0  0
   -2.4602    0.5137    0.9318 C   0  0  0  0  0  0  0  0  0  0  0  0
   -1.4250   -0.4663    0.7321 O   0  0  0  0  0  0  0  0  0  0  0  0
   -0.3511    0.0255   -0.0783 C   0  0  0  0  0  0  0  0  0  0  0  0
    0.6044   -1.0296   -0.2740 O   0  0  0  0  0  0  0  0  0  0  0  0
    1.7482   -0.8900    0.4658 C   0  0  0  0  0  0  0  0  0  0  0  0
    1.7139   -0.6427    1.8418 C   0  0  0  0  0  0  0  0  0  0  0  0
    2.9032   -0.5181    2.5585 C   0  0  0  0  0  0  0  0  0  0  0  0
    4.1256   -0.6543    1.9056 C   0  0  0  0  0  0  0  0  0  0  0  0
    4.1608   -0.9310    0.5374 C   0  0  0  0  0  0  0  0  0  0  0  0
    2.9721   -1.0652   -0.1976 C   0  0  0  0  0  0  0  0  0  0  0  0
    3.0277   -1.3994   -1.6628 C   0  0  0  0  0  0  0  0  0  0  0  0
    2.5110   -0.3143   -2.4286 O   0  0  0  0  0  0  0  0  0  0  0  0
   -0.8591    0.4279   -1.4784 C   0  0  0  0  0  0  0  0  0  0  0  0
    0.1593    1.0516   -2.2787 O   0  0  0  0  0  0  0  0  0  0  0  0
   -2.0065    1.4276   -1.3457 C   0  0  0  0  0  0  0  0  0  0  0  0
   -2.5872    1.6923   -2.6337 O   0  0  0  0  0  0  0  0  0  0  0  0
   -3.0930    0.9055   -0.4065 C   0  0  0  0  0  0  0  0  0  0  0  0
   -4.0878    1.9154   -0.2337 O   0  0  0  0  0  0  0  0  0  0  0  0
   -2.0928   -1.0625    2.7987 H   0  0  0  0  0  0  0  0  0  0  0  0
   -4.2790    0.6170    2.1425 H   0  0  0  0  0  0  0  0  0  0  0  0
   -3.9569   -0.9888    1.4430 H   0  0  0  0  0  0  0  0  0  0  0  0
   -2.0171    1.3857    1.4311 H   0  0  0  0  0  0  0  0  0  0  0  0
    0.1107    0.9022    0.3989 H   0  0  0  0  0  0  0  0  0  0  0  0
    0.7678   -0.5590    2.3691 H   0  0  0  0  0  0  0  0  0  0  0  0
    2.8754   -0.3208    3.6271 H   0  0  0  0  0  0  0  0  0  0  0  0
    5.0533   -0.5556    2.4639 H   0  0  0  0  0  0  0  0  0  0  0  0
    5.1261   -1.0448    0.0490 H   0  0  0  0  0  0  0  0  0  0  0  0
    2.4399   -2.2993   -1.8728 H   0  0  0  0  0  0  0  0  0  0  0  0
    4.0581   -1.5860   -1.9844 H   0  0  0  0  0  0  0  0  0  0  0  0
    2.7457   -0.5057   -3.3545 H   0  0  0  0  0  0  0  0  0  0  0  0
   -1.1934   -0.4565   -2.0345 H   0  0  0  0  0  0  0  0  0  0  0  0
    0.9764    0.5059   -2.1861 H   0  0  0  0  0  0  0  0  0  0  0  0
   -1.6324    2.3960   -0.9895 H   0  0  0  0  0  0  0  0  0  0  0  0
   -1.8220    1.8623   -3.2213 H   0  0  0  0  0  0  0  0  0  0  0  0
   -3.5846    0.0394   -0.8674 H   0  0  0  0  0  0  0  0  0  0  0  0
   -4.2925    2.2317   -1.1379 H   0  0  0  0  0  0  0  0  0  0  0  0
  1  2  1  0
  2  3  1  0
  3  4  1  0
  4  5  1  0
  5  6  1  0
  6  7  1  0
  7  8  2  0
  8  9  1  0
  9 10  2  0
 10 11  1  0
 11 12  2  0
 12 13  1  0
 13 14  1  0
  5 15  1  0
 15 16  1  0
 15 17  1  0
 17 18  1  0
 17 19  1  0
 19 20  1  0
 12  7  1  0
 19  3  1  0
  1 21  1  0
  2 22  1  0
  2 23  1  0
  3 24  1  0
  5 25  1  0
  8 26  1  0
  9 27  1  0
 10 28  1  0
 11 29  1  0
 13 30  1  0
 13 31  1  0
 14 32  1  0
 15 33  1  0
 16 34  1  0
 17 35  1  0
 18 36  1  0
 19 37  1  0
 20 38  1  0
M  END
>  <Energy>  (1) 
115.51108467066449

>  <Real charge>  (1) 
0

>  <Mult>  (1) 
1

$$$$
