mol_832 202
     RDKit          3D

 15 14  0  0  0  0  0  0  0  0999 V2000
   -2.3288   -0.4862   -0.2665 C   0  0  0  0  0  0  0  0  0  0  0  0
   -1.2175    0.1683    0.5297 C   0  0  0  0  0  0  0  0  0  0  0  0
    0.0305   -0.1927   -0.0572 O   0  0  0  0  0  0  0  0  0  0  0  0
    1.1294    0.3882    0.6406 C   0  0  0  0  0  0  0  0  0  0  0  0
    2.4123   -0.0419   -0.0425 C   0  0  0  0  0  0  0  0  0  0  0  0
   -2.2963   -0.1623   -1.3121 H   0  0  0  0  0  0  0  0  0  0  0  0
   -2.2133   -1.5751   -0.2666 H   0  0  0  0  0  0  0  0  0  0  0  0
   -3.3079   -0.2350    0.1507 H   0  0  0  0  0  0  0  0  0  0  0  0
   -1.2512   -0.1765    1.5690 H   0  0  0  0  0  0  0  0  0  0  0  0
   -1.3354    1.2572    0.5080 H   0  0  0  0  0  0  0  0  0  0  0  0
    1.1292    0.0466    1.6815 H   0  0  0  0  0  0  0  0  0  0  0  0
    1.0450    1.4803    0.6205 H   0  0  0  0  0  0  0  0  0  0  0  0
    3.2845    0.3828    0.4622 H   0  0  0  0  0  0  0  0  0  0  0  0
    2.5012   -1.1333   -0.0439 H   0  0  0  0  0  0  0  0  0  0  0  0
    2.4182    0.2795   -1.0893 H   0  0  0  0  0  0  0  0  0  0  0  0
  1  2  1  0
  2  3  1  0
  3  4  1  0
  4  5  1  0
  1  6  1  0
  1  7  1  0
  1  8  1  0
  2  9  1  0
  2 10  1  0
  4 11  1  0
  4 12  1  0
  5 13  1  0
  5 14  1  0
  5 15  1  0
M  END
>  <Energy>  (1) 
1.624142217857617

>  <Real charge>  (1) 
0

>  <Mult>  (1) 
1

$$$$
