mol_763 24
     RDKit          3D

 15 14  0  0  0  0  0  0  0  0999 V2000
    2.1017   -0.0421   -0.3033 C   0  0  0  0  0  0  0  0  0  0  0  0
    0.7914    0.6599   -0.1390 C   0  0  0  0  0  0  0  0  0  0  0  0
   -0.4275    0.1206    0.0576 C   0  0  0  0  0  0  0  0  0  0  0  0
   -1.6400    1.0047    0.2009 C   0  0  0  0  0  0  0  0  0  0  0  0
   -0.7272   -1.3498    0.1551 C   0  0  0  0  0  0  0  0  0  0  0  0
    2.7931    0.2844    0.4801 H   0  0  0  0  0  0  0  0  0  0  0  0
    2.5390    0.2200   -1.2720 H   0  0  0  0  0  0  0  0  0  0  0  0
    2.0309   -1.1296   -0.2530 H   0  0  0  0  0  0  0  0  0  0  0  0
    0.8722    1.7458   -0.1907 H   0  0  0  0  0  0  0  0  0  0  0  0
   -2.1141    0.8426    1.1745 H   0  0  0  0  0  0  0  0  0  0  0  0
   -1.3914    2.0686    0.1258 H   0  0  0  0  0  0  0  0  0  0  0  0
   -2.3691    0.7780   -0.5839 H   0  0  0  0  0  0  0  0  0  0  0  0
   -1.4339   -1.6412   -0.6292 H   0  0  0  0  0  0  0  0  0  0  0  0
    0.1540   -1.9852    0.0507 H   0  0  0  0  0  0  0  0  0  0  0  0
   -1.1792   -1.5766    1.1265 H   0  0  0  0  0  0  0  0  0  0  0  0
  1  2  1  0
  2  3  2  3
  3  4  1  0
  3  5  1  0
  1  6  1  0
  1  7  1  0
  1  8  1  0
  2  9  1  0
  4 10  1  0
  4 11  1  0
  4 12  1  0
  5 13  1  0
  5 14  1  0
  5 15  1  0
M  END
>  <Energy>  (1) 
7.857905059743512

>  <Real charge>  (1) 
0

>  <Mult>  (1) 
1

$$$$
