mol_505 180
     RDKit          3D

 31 32  0  0  0  0  0  0  0  0999 V2000
   -1.2020   -1.7329    1.4784 C   0  0  0  0  0  0  0  0  0  0  0  0
   -1.9903   -0.7558    0.6528 C   0  0  0  0  0  0  0  0  0  0  0  0
   -1.5104    0.3900    0.1271 C   0  0  0  0  0  0  0  0  0  0  0  0
   -2.3648    1.3501   -0.6459 C   0  0  0  0  0  0  0  0  0  0  0  0
   -3.6917    0.7107   -1.0346 C   0  0  0  0  0  0  0  0  0  0  0  0
   -4.2216   -0.0972    0.1375 C   0  0  0  0  0  0  0  0  0  0  0  0
   -3.3148   -1.1415    0.5106 O   0  0  0  0  0  0  0  0  0  0  0  0
   -0.0857    0.8051    0.2701 C   0  0  0  0  0  0  0  0  0  0  0  0
    0.1801    1.8587    0.8321 O   0  0  0  0  0  0  0  0  0  0  0  0
    0.7788   -0.0772   -0.3421 N   0  0  0  0  0  0  0  0  0  0  0  0
    2.1841    0.0042   -0.4063 C   0  0  0  0  0  0  0  0  0  0  0  0
    2.9339    1.0218    0.1856 C   0  0  0  0  0  0  0  0  0  0  0  0
    4.3285    1.0283    0.0782 C   0  0  0  0  0  0  0  0  0  0  0  0
    4.9842    0.0175   -0.6206 C   0  0  0  0  0  0  0  0  0  0  0  0
    4.2458   -1.0028   -1.2133 C   0  0  0  0  0  0  0  0  0  0  0  0
    2.8525   -1.0093   -1.1061 C   0  0  0  0  0  0  0  0  0  0  0  0
   -0.9765   -2.6264    0.8879 H   0  0  0  0  0  0  0  0  0  0  0  0
   -0.2634   -1.3187    1.8562 H   0  0  0  0  0  0  0  0  0  0  0  0
   -1.7854   -2.0400    2.3534 H   0  0  0  0  0  0  0  0  0  0  0  0
   -1.8485    1.6857   -1.5528 H   0  0  0  0  0  0  0  0  0  0  0  0
   -2.5512    2.2375   -0.0284 H   0  0  0  0  0  0  0  0  0  0  0  0
   -3.5320    0.0455   -1.8927 H   0  0  0  0  0  0  0  0  0  0  0  0
   -4.4113    1.4785   -1.3373 H   0  0  0  0  0  0  0  0  0  0  0  0
   -4.4105    0.5391    1.0109 H   0  0  0  0  0  0  0  0  0  0  0  0
   -5.1707   -0.5705   -0.1346 H   0  0  0  0  0  0  0  0  0  0  0  0
    0.3577   -0.8697   -0.8099 H   0  0  0  0  0  0  0  0  0  0  0  0
    2.4643    1.8274    0.7412 H   0  0  0  0  0  0  0  0  0  0  0  0
    4.8996    1.8274    0.5441 H   0  0  0  0  0  0  0  0  0  0  0  0
    6.0679    0.0264   -0.7015 H   0  0  0  0  0  0  0  0  0  0  0  0
    4.7531   -1.7939   -1.7591 H   0  0  0  0  0  0  0  0  0  0  0  0
    2.3003   -1.8176   -1.5779 H   0  0  0  0  0  0  0  0  0  0  0  0
  1  2  1  0
  2  3  2  0
  3  4  1  0
  4  5  1  0
  5  6  1  0
  6  7  1  0
  3  8  1  0
  8  9  2  0
  8 10  1  0
 10 11  1  0
 11 12  2  0
 12 13  1  0
 13 14  2  0
 14 15  1  0
 15 16  2  0
  7  2  1  0
 16 11  1  0
  1 17  1  0
  1 18  1  0
  1 19  1  0
  4 20  1  0
  4 21  1  0
  5 22  1  0
  5 23  1  0
  6 24  1  0
  6 25  1  0
 10 26  1  0
 12 27  1  0
 13 28  1  0
 14 29  1  0
 15 30  1  0
 16 31  1  0
M  END
>  <Energy>  (1) 
-0.2752381162460775

>  <Real charge>  (1) 
0

>  <Mult>  (1) 
1

$$$$
mol_505 213
     RDKit          3D

 31 32  0  0  0  0  0  0  0  0999 V2000
   -1.0456    2.0439    1.3060 C   0  0  0  0  0  0  0  0  0  0  0  0
   -1.9011    0.9143    0.8050 C   0  0  0  0  0  0  0  0  0  0  0  0
   -1.4607   -0.3273    0.5143 C   0  0  0  0  0  0  0  0  0  0  0  0
   -2.3886   -1.4557    0.1724 C   0  0  0  0  0  0  0  0  0  0  0  0
   -3.8372   -1.0825    0.4619 C   0  0  0  0  0  0  0  0  0  0  0  0
   -4.0841    0.3500    0.0215 C   0  0  0  0  0  0  0  0  0  0  0  0
   -3.2380    1.2712    0.7184 O   0  0  0  0  0  0  0  0  0  0  0  0
   -0.0170   -0.6977    0.5771 C   0  0  0  0  0  0  0  0  0  0  0  0
    0.3487   -1.5851    1.3354 O   0  0  0  0  0  0  0  0  0  0  0  0
    0.7417    0.0139   -0.3286 N   0  0  0  0  0  0  0  0  0  0  0  0
    2.1312   -0.0796   -0.5445 C   0  0  0  0  0  0  0  0  0  0  0  0
    2.6809    0.7407   -1.5388 C   0  0  0  0  0  0  0  0  0  0  0  0
    4.0509    0.7099   -1.8125 C   0  0  0  0  0  0  0  0  0  0  0  0
    4.8848   -0.1415   -1.0932 C   0  0  0  0  0  0  0  0  0  0  0  0
    4.3477   -0.9593   -0.1021 C   0  0  0  0  0  0  0  0  0  0  0  0
    2.9763   -0.9285    0.1719 C   0  0  0  0  0  0  0  0  0  0  0  0
   -0.0683    1.7154    1.6699 H   0  0  0  0  0  0  0  0  0  0  0  0
   -1.5414    2.5461    2.1440 H   0  0  0  0  0  0  0  0  0  0  0  0
   -0.8922    2.7792    0.5099 H   0  0  0  0  0  0  0  0  0  0  0  0
   -2.2757   -1.6926   -0.8928 H   0  0  0  0  0  0  0  0  0  0  0  0
   -2.1353   -2.3613    0.7354 H   0  0  0  0  0  0  0  0  0  0  0  0
   -4.0217   -1.1688    1.5402 H   0  0  0  0  0  0  0  0  0  0  0  0
   -4.5181   -1.7713   -0.0489 H   0  0  0  0  0  0  0  0  0  0  0  0
   -3.9259    0.4698   -1.0574 H   0  0  0  0  0  0  0  0  0  0  0  0
   -5.1203    0.6325    0.2341 H   0  0  0  0  0  0  0  0  0  0  0  0
    0.2453    0.6742   -0.9130 H   0  0  0  0  0  0  0  0  0  0  0  0
    2.0527    1.4148   -2.1148 H   0  0  0  0  0  0  0  0  0  0  0  0
    4.4657    1.3503   -2.5864 H   0  0  0  0  0  0  0  0  0  0  0  0
    5.9508   -0.1686   -1.3026 H   0  0  0  0  0  0  0  0  0  0  0  0
    4.9938   -1.6257    0.4640 H   0  0  0  0  0  0  0  0  0  0  0  0
    2.6008   -1.5808    0.9542 H   0  0  0  0  0  0  0  0  0  0  0  0
  1  2  1  0
  2  3  2  0
  3  4  1  0
  4  5  1  0
  5  6  1  0
  6  7  1  0
  3  8  1  0
  8  9  2  0
  8 10  1  0
 10 11  1  0
 11 12  2  0
 12 13  1  0
 13 14  2  0
 14 15  1  0
 15 16  2  0
  7  2  1  0
 16 11  1  0
  1 17  1  0
  1 18  1  0
  1 19  1  0
  4 20  1  0
  4 21  1  0
  5 22  1  0
  5 23  1  0
  6 24  1  0
  6 25  1  0
 10 26  1  0
 12 27  1  0
 13 28  1  0
 14 29  1  0
 15 30  1  0
 16 31  1  0
M  END
>  <Energy>  (2) 
-0.05803054063985025

>  <Real charge>  (2) 
0

>  <Mult>  (2) 
1

$$$$
