mol_405 217
     RDKit          3D

 28 28  0  0  0  0  0  0  0  0999 V2000
   -2.2156   -1.9173   -0.4896 C   0  0  0  0  0  0  0  0  0  0  0  0
   -0.9759   -1.1616   -0.9564 C   0  0  0  0  0  0  0  0  0  0  0  0
   -0.5028   -0.0022   -0.0259 C   0  0  0  0  0  0  0  0  0  0  0  0
   -1.6420    1.0263    0.1931 C   0  0  0  0  0  0  0  0  0  0  0  0
   -1.2418    2.2605    1.0017 C   0  0  0  0  0  0  0  0  0  0  0  0
   -0.0561   -0.6065    1.2904 C   0  0  0  0  0  0  0  0  0  0  0  0
   -0.7400   -0.6306    2.3098 O   0  0  0  0  0  0  0  0  0  0  0  0
    1.1688   -1.2038    1.2710 N   0  0  0  0  0  0  0  0  0  0  0  0
    2.2151   -0.7615    0.5201 C   0  0  0  0  0  0  0  0  0  0  0  0
    3.3594   -1.0532    0.8631 O   0  0  0  0  0  0  0  0  0  0  0  0
    1.9176    0.0595   -0.5494 N   0  0  0  0  0  0  0  0  0  0  0  0
    3.0337    0.5813   -1.3185 C   0  0  0  0  0  0  0  0  0  0  0  0
    0.6725    0.6409   -0.7563 C   0  0  0  0  0  0  0  0  0  0  0  0
    0.5081    1.5752   -1.5435 O   0  0  0  0  0  0  0  0  0  0  0  0
   -2.0780   -2.3428    0.5084 H   0  0  0  0  0  0  0  0  0  0  0  0
   -3.0998   -1.2739   -0.4781 H   0  0  0  0  0  0  0  0  0  0  0  0
   -2.4246   -2.7443   -1.1765 H   0  0  0  0  0  0  0  0  0  0  0  0
   -1.1794   -0.7625   -1.9595 H   0  0  0  0  0  0  0  0  0  0  0  0
   -0.1676   -1.8934   -1.0884 H   0  0  0  0  0  0  0  0  0  0  0  0
   -2.4820    0.5554    0.7177 H   0  0  0  0  0  0  0  0  0  0  0  0
   -2.0301    1.3636   -0.7766 H   0  0  0  0  0  0  0  0  0  0  0  0
   -2.1099    2.9161    1.1278 H   0  0  0  0  0  0  0  0  0  0  0  0
   -0.4622    2.8420    0.5021 H   0  0  0  0  0  0  0  0  0  0  0  0
   -0.8823    1.9930    1.9993 H   0  0  0  0  0  0  0  0  0  0  0  0
    1.4502   -1.6311    2.1436 H   0  0  0  0  0  0  0  0  0  0  0  0
    2.7181    0.8306   -2.3361 H   0  0  0  0  0  0  0  0  0  0  0  0
    3.8473   -0.1484   -1.3710 H   0  0  0  0  0  0  0  0  0  0  0  0
    3.3993    1.4887   -0.8270 H   0  0  0  0  0  0  0  0  0  0  0  0
  1  2  1  0
  2  3  1  0
  3  4  1  0
  4  5  1  0
  3  6  1  0
  6  7  2  0
  6  8  1  0
  8  9  1  0
  9 10  2  0
  9 11  1  0
 11 12  1  0
 11 13  1  0
 13 14  2  0
 13  3  1  0
  1 15  1  0
  1 16  1  0
  1 17  1  0
  2 18  1  0
  2 19  1  0
  4 20  1  0
  4 21  1  0
  5 22  1  0
  5 23  1  0
  5 24  1  0
  8 25  1  0
 12 26  1  0
 12 27  1  0
 12 28  1  0
M  END
>  <Energy>  (1) 
-115.04106177790231

>  <Real charge>  (1) 
0

>  <Mult>  (1) 
1

$$$$
mol_405 111
     RDKit          3D

 28 28  0  0  0  0  0  0  0  0999 V2000
   -1.3475   -2.1359   -1.1014 C   0  0  0  0  0  0  0  0  0  0  0  0
   -0.9670   -1.5080    0.2351 C   0  0  0  0  0  0  0  0  0  0  0  0
   -0.6102    0.0108    0.1932 C   0  0  0  0  0  0  0  0  0  0  0  0
   -1.7664    0.8318   -0.4332 C   0  0  0  0  0  0  0  0  0  0  0  0
   -1.5454    2.3446   -0.4395 C   0  0  0  0  0  0  0  0  0  0  0  0
   -0.3993    0.4116    1.6413 C   0  0  0  0  0  0  0  0  0  0  0  0
   -1.2736    0.8887    2.3600 O   0  0  0  0  0  0  0  0  0  0  0  0
    0.8300    0.1239    2.1585 N   0  0  0  0  0  0  0  0  0  0  0  0
    1.9809   -0.0084    1.4412 C   0  0  0  0  0  0  0  0  0  0  0  0
    3.0592    0.0313    2.0310 O   0  0  0  0  0  0  0  0  0  0  0  0
    1.8563   -0.1078    0.0703 N   0  0  0  0  0  0  0  0  0  0  0  0
    3.0831   -0.1372   -0.7059 C   0  0  0  0  0  0  0  0  0  0  0  0
    0.6771    0.1670   -0.6090 C   0  0  0  0  0  0  0  0  0  0  0  0
    0.6629    0.4604   -1.8058 O   0  0  0  0  0  0  0  0  0  0  0  0
   -2.2729   -1.7099   -1.4989 H   0  0  0  0  0  0  0  0  0  0  0  0
   -1.5153   -3.2102   -0.9701 H   0  0  0  0  0  0  0  0  0  0  0  0
   -0.5559   -2.0138   -1.8459 H   0  0  0  0  0  0  0  0  0  0  0  0
   -0.1245   -2.0817    0.6440 H   0  0  0  0  0  0  0  0  0  0  0  0
   -1.8002   -1.6663    0.9334 H   0  0  0  0  0  0  0  0  0  0  0  0
   -2.7017    0.6244    0.1026 H   0  0  0  0  0  0  0  0  0  0  0  0
   -1.9295    0.5265   -1.4736 H   0  0  0  0  0  0  0  0  0  0  0  0
   -1.4584    2.7501    0.5721 H   0  0  0  0  0  0  0  0  0  0  0  0
   -0.6458    2.6206   -0.9968 H   0  0  0  0  0  0  0  0  0  0  0  0
   -2.3964    2.8395   -0.9192 H   0  0  0  0  0  0  0  0  0  0  0  0
    0.9631    0.3563    3.1335 H   0  0  0  0  0  0  0  0  0  0  0  0
    2.9064   -0.5845   -1.6889 H   0  0  0  0  0  0  0  0  0  0  0  0
    3.4356    0.8907   -0.8395 H   0  0  0  0  0  0  0  0  0  0  0  0
    3.8553   -0.7145   -0.1886 H   0  0  0  0  0  0  0  0  0  0  0  0
  1  2  1  0
  2  3  1  0
  3  4  1  0
  4  5  1  0
  3  6  1  0
  6  7  2  0
  6  8  1  0
  8  9  1  0
  9 10  2  0
  9 11  1  0
 11 12  1  0
 11 13  1  0
 13 14  2  0
 13  3  1  0
  1 15  1  0
  1 16  1  0
  1 17  1  0
  2 18  1  0
  2 19  1  0
  4 20  1  0
  4 21  1  0
  5 22  1  0
  5 23  1  0
  5 24  1  0
  8 25  1  0
 12 26  1  0
 12 27  1  0
 12 28  1  0
M  END
>  <Energy>  (2) 
-114.96585875283336

>  <Real charge>  (2) 
0

>  <Mult>  (2) 
1

$$$$
mol_405 51
     RDKit          3D

 28 28  0  0  0  0  0  0  0  0999 V2000
   -0.5045   -2.5099    0.5466 C   0  0  0  0  0  0  0  0  0  0  0  0
   -1.3379   -1.2465    0.7398 C   0  0  0  0  0  0  0  0  0  0  0  0
   -0.7763    0.0550    0.0957 C   0  0  0  0  0  0  0  0  0  0  0  0
   -1.7684    1.2080    0.4251 C   0  0  0  0  0  0  0  0  0  0  0  0
   -1.3577    2.5702   -0.1310 C   0  0  0  0  0  0  0  0  0  0  0  0
   -0.7207   -0.1393   -1.4021 C   0  0  0  0  0  0  0  0  0  0  0  0
   -1.6992   -0.0322   -2.1386 O   0  0  0  0  0  0  0  0  0  0  0  0
    0.4814   -0.5120   -1.9209 N   0  0  0  0  0  0  0  0  0  0  0  0
    1.6963   -0.3580   -1.3279 C   0  0  0  0  0  0  0  0  0  0  0  0
    2.7116   -0.4750   -2.0115 O   0  0  0  0  0  0  0  0  0  0  0  0
    1.7025   -0.0250    0.0099 N   0  0  0  0  0  0  0  0  0  0  0  0
    2.9946    0.1804    0.6413 C   0  0  0  0  0  0  0  0  0  0  0  0
    0.5760    0.3547    0.7243 C   0  0  0  0  0  0  0  0  0  0  0  0
    0.6549    0.8652    1.8447 O   0  0  0  0  0  0  0  0  0  0  0  0
   -0.4032   -2.7709   -0.5104 H   0  0  0  0  0  0  0  0  0  0  0  0
   -0.9939   -3.3533    1.0454 H   0  0  0  0  0  0  0  0  0  0  0  0
    0.4934   -2.4079    0.9822 H   0  0  0  0  0  0  0  0  0  0  0  0
   -1.4605   -1.0925    1.8203 H   0  0  0  0  0  0  0  0  0  0  0  0
   -2.3413   -1.4455    0.3403 H   0  0  0  0  0  0  0  0  0  0  0  0
   -1.8834    1.3057    1.5125 H   0  0  0  0  0  0  0  0  0  0  0  0
   -2.7658    0.9677    0.0339 H   0  0  0  0  0  0  0  0  0  0  0  0
   -1.2862    2.5565   -1.2224 H   0  0  0  0  0  0  0  0  0  0  0  0
   -0.3953    2.8979    0.2726 H   0  0  0  0  0  0  0  0  0  0  0  0
   -2.1049    3.3225    0.1425 H   0  0  0  0  0  0  0  0  0  0  0  0
    0.5070   -0.6460   -2.9226 H   0  0  0  0  0  0  0  0  0  0  0  0
    3.2855    1.2264    0.5007 H   0  0  0  0  0  0  0  0  0  0  0  0
    3.7578   -0.4649    0.1961 H   0  0  0  0  0  0  0  0  0  0  0  0
    2.9382   -0.0313    1.7135 H   0  0  0  0  0  0  0  0  0  0  0  0
  1  2  1  0
  2  3  1  0
  3  4  1  0
  4  5  1  0
  3  6  1  0
  6  7  2  0
  6  8  1  0
  8  9  1  0
  9 10  2  0
  9 11  1  0
 11 12  1  0
 11 13  1  0
 13 14  2  0
 13  3  1  0
  1 15  1  0
  1 16  1  0
  1 17  1  0
  2 18  1  0
  2 19  1  0
  4 20  1  0
  4 21  1  0
  5 22  1  0
  5 23  1  0
  5 24  1  0
  8 25  1  0
 12 26  1  0
 12 27  1  0
 12 28  1  0
M  END
>  <Energy>  (3) 
-114.62822723341544

>  <Real charge>  (3) 
0

>  <Mult>  (3) 
1

$$$$
