mol_919 217
     RDKit          3D

 16 17  0  0  0  0  0  0  0  0999 V2000
    2.7535   -0.8921    0.1070 N   0  0  0  0  0  0  0  0  0  0  0  0
    1.4939   -0.3885    0.0674 C   0  0  0  0  0  0  0  0  0  0  0  0
    0.4680   -1.1899    0.1786 N   0  0  0  0  0  0  0  0  0  0  0  0
   -0.7155   -0.5404    0.1164 C   0  0  0  0  0  0  0  0  0  0  0  0
   -1.9472   -1.1149    0.2042 N   0  0  0  0  0  0  0  0  0  0  0  0
   -2.8705   -0.1063    0.0952 C   0  0  0  0  0  0  0  0  0  0  0  0
   -2.3010    1.0731   -0.0550 N   0  0  0  0  0  0  0  0  0  0  0  0
   -0.9551    0.8045   -0.0396 C   0  0  0  0  0  0  0  0  0  0  0  0
    0.1909    1.6797   -0.1523 C   0  0  0  0  0  0  0  0  0  0  0  0
    0.1569    2.9000   -0.2757 O   0  0  0  0  0  0  0  0  0  0  0  0
    1.3898    0.9788   -0.1019 N   0  0  0  0  0  0  0  0  0  0  0  0
    2.7560   -1.9046    0.0248 H   0  0  0  0  0  0  0  0  0  0  0  0
    3.4309   -0.4553   -0.5042 H   0  0  0  0  0  0  0  0  0  0  0  0
   -2.1331   -2.0989    0.3292 H   0  0  0  0  0  0  0  0  0  0  0  0
   -3.9355   -0.2937    0.1335 H   0  0  0  0  0  0  0  0  0  0  0  0
    2.2179    1.5486   -0.1275 H   0  0  0  0  0  0  0  0  0  0  0  0
  1  2  1  0
  2  3  2  0
  3  4  1  0
  4  5  1  0
  5  6  1  0
  6  7  2  0
  7  8  1  0
  8  9  1  0
  9 10  2  0
  9 11  1  0
  8  4  2  0
 11  2  1  0
  1 12  1  0
  1 13  1  0
  5 14  1  0
  6 15  1  0
 11 16  1  0
M  END
>  <Energy>  (1) 
-73.2513082868162

>  <Real charge>  (1) 
0

>  <Mult>  (1) 
1

$$$$
