mol_233 307
     RDKit          3D

 51 54  0  0  0  0  0  0  0  0999 V2000
   -3.6819   -1.1548   -0.8891 C   0  0  0  0  0  0  0  0  0  0  0  0
   -3.1387   -0.2195    0.1917 C   0  0  0  0  0  0  0  0  0  0  0  0
   -2.3976   -0.9852    1.2973 C   0  0  0  0  0  0  0  0  0  0  0  0
   -0.9954   -1.4218    0.8835 C   0  0  0  0  0  0  0  0  0  0  0  0
   -0.1317   -0.2261    0.4375 C   0  0  0  0  0  0  0  0  0  0  0  0
   -0.8319    0.5194   -0.7324 C   0  0  0  0  0  0  0  0  0  0  0  0
   -0.0124    1.7266   -1.2163 C   0  0  0  0  0  0  0  0  0  0  0  0
    1.4337    1.3651   -1.5410 C   0  0  0  0  0  0  0  0  0  0  0  0
    2.1011    0.6928   -0.3377 C   0  0  0  0  0  0  0  0  0  0  0  0
    3.6010    0.4794   -0.5767 C   0  0  0  0  0  0  0  0  0  0  0  0
    4.2791   -0.0948    0.6653 C   0  0  0  0  0  0  0  0  0  0  0  0
    5.6366   -0.3837    0.3488 O   0  0  0  0  0  0  0  0  0  0  0  0
    3.5879   -1.3594    1.1662 C   0  0  0  0  0  0  0  0  0  0  0  0
    2.0823   -1.1642    1.3589 C   0  0  0  0  0  0  0  0  0  0  0  0
    1.3598   -0.6119    0.0955 C   0  0  0  0  0  0  0  0  0  0  0  0
    1.4102   -1.7006   -1.0082 C   0  0  0  0  0  0  0  0  0  0  0  0
   -2.2905    0.9230   -0.4159 C   0  0  0  0  0  0  0  0  0  0  0  0
   -2.4673    2.0798    0.5787 C   0  0  0  0  0  0  0  0  0  0  0  0
   -3.9475    2.0428    0.9414 C   0  0  0  0  0  0  0  0  0  0  0  0
   -4.2685    0.5740    0.8363 C   0  0  0  0  0  0  0  0  0  0  0  0
   -5.3208    0.0856    1.2304 O   0  0  0  0  0  0  0  0  0  0  0  0
   -2.8763   -1.6464   -1.4432 H   0  0  0  0  0  0  0  0  0  0  0  0
   -4.3009   -0.6091   -1.6106 H   0  0  0  0  0  0  0  0  0  0  0  0
   -4.3157   -1.9355   -0.4533 H   0  0  0  0  0  0  0  0  0  0  0  0
   -2.9775   -1.8677    1.5971 H   0  0  0  0  0  0  0  0  0  0  0  0
   -2.3178   -0.3699    2.2037 H   0  0  0  0  0  0  0  0  0  0  0  0
   -0.5365   -1.9289    1.7382 H   0  0  0  0  0  0  0  0  0  0  0  0
   -1.0756   -2.1625    0.0806 H   0  0  0  0  0  0  0  0  0  0  0  0
   -0.0864    0.4688    1.2886 H   0  0  0  0  0  0  0  0  0  0  0  0
   -0.8959   -0.1786   -1.5776 H   0  0  0  0  0  0  0  0  0  0  0  0
   -0.0033    2.5090   -0.4480 H   0  0  0  0  0  0  0  0  0  0  0  0
   -0.4827    2.1629   -2.1057 H   0  0  0  0  0  0  0  0  0  0  0  0
    1.4732    0.7196   -2.4254 H   0  0  0  0  0  0  0  0  0  0  0  0
    1.9745    2.2829   -1.8028 H   0  0  0  0  0  0  0  0  0  0  0  0
    2.0258    1.4049    0.4993 H   0  0  0  0  0  0  0  0  0  0  0  0
    3.7810   -0.1663   -1.4444 H   0  0  0  0  0  0  0  0  0  0  0  0
    4.0813    1.4337   -0.8302 H   0  0  0  0  0  0  0  0  0  0  0  0
    4.2780    0.6626    1.4585 H   0  0  0  0  0  0  0  0  0  0  0  0
    6.0558   -0.7403    1.1506 H   0  0  0  0  0  0  0  0  0  0  0  0
    4.0408   -1.6687    2.1166 H   0  0  0  0  0  0  0  0  0  0  0  0
    3.7825   -2.1900    0.4768 H   0  0  0  0  0  0  0  0  0  0  0  0
    1.6525   -2.1255    1.6626 H   0  0  0  0  0  0  0  0  0  0  0  0
    1.9265   -0.4745    2.1988 H   0  0  0  0  0  0  0  0  0  0  0  0
    2.4305   -1.9142   -1.3381 H   0  0  0  0  0  0  0  0  0  0  0  0
    0.9995   -2.6496   -0.6470 H   0  0  0  0  0  0  0  0  0  0  0  0
    0.8463   -1.4214   -1.9016 H   0  0  0  0  0  0  0  0  0  0  0  0
   -2.7533    1.2470   -1.3610 H   0  0  0  0  0  0  0  0  0  0  0  0
   -1.8570    1.9364    1.4771 H   0  0  0  0  0  0  0  0  0  0  0  0
   -2.1995    3.0484    0.1451 H   0  0  0  0  0  0  0  0  0  0  0  0
   -4.1265    2.4162    1.9519 H   0  0  0  0  0  0  0  0  0  0  0  0
   -4.5505    2.5903    0.2115 H   0  0  0  0  0  0  0  0  0  0  0  0
  1  2  1  0
  2  3  1  0
  3  4  1  0
  4  5  1  0
  5  6  1  0
  6  7  1  0
  7  8  1  0
  8  9  1  0
  9 10  1  0
 10 11  1  0
 11 12  1  0
 11 13  1  0
 13 14  1  0
 14 15  1  0
 15 16  1  0
  6 17  1  0
 17 18  1  0
 18 19  1  0
 19 20  1  0
 20 21  2  0
 15  5  1  0
 15  9  1  0
 17  2  1  0
 20  2  1  0
  1 22  1  0
  1 23  1  0
  1 24  1  0
  3 25  1  0
  3 26  1  0
  4 27  1  0
  4 28  1  0
  5 29  1  0
  6 30  1  0
  7 31  1  0
  7 32  1  0
  8 33  1  0
  8 34  1  0
  9 35  1  0
 10 36  1  0
 10 37  1  0
 11 38  1  0
 12 39  1  0
 13 40  1  0
 13 41  1  0
 14 42  1  0
 14 43  1  0
 16 44  1  0
 16 45  1  0
 16 46  1  0
 17 47  1  0
 18 48  1  0
 18 49  1  0
 19 50  1  0
 19 51  1  0
M  END
>  <Energy>  (1) 
61.64329821861379

>  <Real charge>  (1) 
0

>  <Mult>  (1) 
1

$$$$
mol_233 104
     RDKit          3D

 51 54  0  0  0  0  0  0  0  0999 V2000
   -3.0211   -1.5443    1.7005 C   0  0  0  0  0  0  0  0  0  0  0  0
   -2.9725   -0.7332    0.4053 C   0  0  0  0  0  0  0  0  0  0  0  0
   -2.3669   -1.5342   -0.7552 C   0  0  0  0  0  0  0  0  0  0  0  0
   -0.8460   -1.6295   -0.6814 C   0  0  0  0  0  0  0  0  0  0  0  0
   -0.1802   -0.2378   -0.6388 C   0  0  0  0  0  0  0  0  0  0  0  0
   -0.7311    0.5598    0.5688 C   0  0  0  0  0  0  0  0  0  0  0  0
   -0.1154    1.9607    0.6268 C   0  0  0  0  0  0  0  0  0  0  0  0
    1.4006    1.8921    0.6966 C   0  0  0  0  0  0  0  0  0  0  0  0
    1.9926    1.1490   -0.5136 C   0  0  0  0  0  0  0  0  0  0  0  0
    3.5305    1.1530   -0.4149 C   0  0  0  0  0  0  0  0  0  0  0  0
    4.0666    0.2019    0.6523 C   0  0  0  0  0  0  0  0  0  0  0  0
    5.4877    0.1715    0.5553 O   0  0  0  0  0  0  0  0  0  0  0  0
    3.5144   -1.2085    0.4827 C   0  0  0  0  0  0  0  0  0  0  0  0
    1.9874   -1.2319    0.4031 C   0  0  0  0  0  0  0  0  0  0  0  0
    1.4012   -0.2910   -0.6872 C   0  0  0  0  0  0  0  0  0  0  0  0
    1.8164   -0.8315   -2.0846 C   0  0  0  0  0  0  0  0  0  0  0  0
   -2.2749    0.6310    0.6121 C   0  0  0  0  0  0  0  0  0  0  0  0
   -2.9347    1.5429   -0.4332 C   0  0  0  0  0  0  0  0  0  0  0  0
   -4.4135    1.1778   -0.3729 C   0  0  0  0  0  0  0  0  0  0  0  0
   -4.3698   -0.2823   -0.0020 C   0  0  0  0  0  0  0  0  0  0  0  0
   -5.3526   -1.0134   -0.0296 O   0  0  0  0  0  0  0  0  0  0  0  0
   -2.0183   -1.7742    2.0738 H   0  0  0  0  0  0  0  0  0  0  0  0
   -3.5509   -2.4922    1.5529 H   0  0  0  0  0  0  0  0  0  0  0  0
   -3.5556   -1.0009    2.4883 H   0  0  0  0  0  0  0  0  0  0  0  0
   -2.7924   -2.5458   -0.7761 H   0  0  0  0  0  0  0  0  0  0  0  0
   -2.6421   -1.0845   -1.7188 H   0  0  0  0  0  0  0  0  0  0  0  0
   -0.5701   -2.2149    0.2025 H   0  0  0  0  0  0  0  0  0  0  0  0
   -0.5058   -2.1952   -1.5541 H   0  0  0  0  0  0  0  0  0  0  0  0
   -0.4969    0.2964   -1.5465 H   0  0  0  0  0  0  0  0  0  0  0  0
   -0.4265    0.0311    1.4824 H   0  0  0  0  0  0  0  0  0  0  0  0
   -0.4026    2.5469   -0.2543 H   0  0  0  0  0  0  0  0  0  0  0  0
   -0.4912    2.4985    1.5055 H   0  0  0  0  0  0  0  0  0  0  0  0
    1.7980    2.9141    0.7306 H   0  0  0  0  0  0  0  0  0  0  0  0
    1.6932    1.4140    1.6379 H   0  0  0  0  0  0  0  0  0  0  0  0
    1.7263    1.7350   -1.4052 H   0  0  0  0  0  0  0  0  0  0  0  0
    3.9717    0.8982   -1.3865 H   0  0  0  0  0  0  0  0  0  0  0  0
    3.8958    2.1681   -0.2107 H   0  0  0  0  0  0  0  0  0  0  0  0
    3.8184    0.5817    1.6494 H   0  0  0  0  0  0  0  0  0  0  0  0
    5.8160   -0.4361    1.2400 H   0  0  0  0  0  0  0  0  0  0  0  0
    3.8464   -1.8324    1.3221 H   0  0  0  0  0  0  0  0  0  0  0  0
    3.9519   -1.6772   -0.4073 H   0  0  0  0  0  0  0  0  0  0  0  0
    1.6799   -2.2680    0.2188 H   0  0  0  0  0  0  0  0  0  0  0  0
    1.5898   -0.9651    1.3887 H   0  0  0  0  0  0  0  0  0  0  0  0
    2.8968   -0.7984   -2.2483 H   0  0  0  0  0  0  0  0  0  0  0  0
    1.3537   -0.2430   -2.8850 H   0  0  0  0  0  0  0  0  0  0  0  0
    1.5184   -1.8755   -2.2214 H   0  0  0  0  0  0  0  0  0  0  0  0
   -2.5565    1.0295    1.5993 H   0  0  0  0  0  0  0  0  0  0  0  0
   -2.5427    1.3538   -1.4386 H   0  0  0  0  0  0  0  0  0  0  0  0
   -2.7879    2.6050   -0.2130 H   0  0  0  0  0  0  0  0  0  0  0  0
   -4.9281    1.7293    0.4190 H   0  0  0  0  0  0  0  0  0  0  0  0
   -4.9075    1.3277   -1.3352 H   0  0  0  0  0  0  0  0  0  0  0  0
  1  2  1  0
  2  3  1  0
  3  4  1  0
  4  5  1  0
  5  6  1  0
  6  7  1  0
  7  8  1  0
  8  9  1  0
  9 10  1  0
 10 11  1  0
 11 12  1  0
 11 13  1  0
 13 14  1  0
 14 15  1  0
 15 16  1  0
  6 17  1  0
 17 18  1  0
 18 19  1  0
 19 20  1  0
 20 21  2  0
 15  5  1  0
 15  9  1  0
 17  2  1  0
 20  2  1  0
  1 22  1  0
  1 23  1  0
  1 24  1  0
  3 25  1  0
  3 26  1  0
  4 27  1  0
  4 28  1  0
  5 29  1  0
  6 30  1  0
  7 31  1  0
  7 32  1  0
  8 33  1  0
  8 34  1  0
  9 35  1  0
 10 36  1  0
 10 37  1  0
 11 38  1  0
 12 39  1  0
 13 40  1  0
 13 41  1  0
 14 42  1  0
 14 43  1  0
 16 44  1  0
 16 45  1  0
 16 46  1  0
 17 47  1  0
 18 48  1  0
 18 49  1  0
 19 50  1  0
 19 51  1  0
M  END
>  <Energy>  (2) 
62.033653669558355

>  <Real charge>  (2) 
0

>  <Mult>  (2) 
1

$$$$
mol_233 259
     RDKit          3D

 51 54  0  0  0  0  0  0  0  0999 V2000
   -3.1621    1.0393   -1.8627 C   0  0  0  0  0  0  0  0  0  0  0  0
   -3.0236    0.1519   -0.6253 C   0  0  0  0  0  0  0  0  0  0  0  0
   -2.4413   -1.2266   -0.9656 C   0  0  0  0  0  0  0  0  0  0  0  0
   -0.9328   -1.1949   -1.1915 C   0  0  0  0  0  0  0  0  0  0  0  0
   -0.1770   -0.6249    0.0275 C   0  0  0  0  0  0  0  0  0  0  0  0
   -0.7061    0.7958    0.3432 C   0  0  0  0  0  0  0  0  0  0  0  0
   -0.0004    1.3831    1.5689 C   0  0  0  0  0  0  0  0  0  0  0  0
    1.5053    1.4207    1.3706 C   0  0  0  0  0  0  0  0  0  0  0  0
    2.0790    0.0185    1.1027 C   0  0  0  0  0  0  0  0  0  0  0  0
    3.6109    0.1103    0.9596 C   0  0  0  0  0  0  0  0  0  0  0  0
    4.0525    0.7318   -0.3640 C   0  0  0  0  0  0  0  0  0  0  0  0
    5.4711    0.6568   -0.4736 O   0  0  0  0  0  0  0  0  0  0  0  0
    3.4124    0.0401   -1.5619 C   0  0  0  0  0  0  0  0  0  0  0  0
    1.8900   -0.0407   -1.4418 C   0  0  0  0  0  0  0  0  0  0  0  0
    1.3981   -0.6902   -0.1172 C   0  0  0  0  0  0  0  0  0  0  0  0
    1.8145   -2.1882   -0.1147 C   0  0  0  0  0  0  0  0  0  0  0  0
   -2.2424    0.8639    0.5030 C   0  0  0  0  0  0  0  0  0  0  0  0
   -2.8116    0.2469    1.7895 C   0  0  0  0  0  0  0  0  0  0  0  0
   -4.3125    0.1644    1.5363 C   0  0  0  0  0  0  0  0  0  0  0  0
   -4.3760   -0.0526    0.0463 C   0  0  0  0  0  0  0  0  0  0  0  0
   -5.4037   -0.3600   -0.5458 O   0  0  0  0  0  0  0  0  0  0  0  0
   -3.7496    0.5410   -2.6421 H   0  0  0  0  0  0  0  0  0  0  0  0
   -3.6808    1.9748   -1.6231 H   0  0  0  0  0  0  0  0  0  0  0  0
   -2.1876    1.2968   -2.2891 H   0  0  0  0  0  0  0  0  0  0  0  0
   -2.9327   -1.6320   -1.8595 H   0  0  0  0  0  0  0  0  0  0  0  0
   -2.6592   -1.9455   -0.1642 H   0  0  0  0  0  0  0  0  0  0  0  0
   -0.7210   -0.6011   -2.0873 H   0  0  0  0  0  0  0  0  0  0  0  0
   -0.6073   -2.2174   -1.4056 H   0  0  0  0  0  0  0  0  0  0  0  0
   -0.4325   -1.2602    0.8882 H   0  0  0  0  0  0  0  0  0  0  0  0
   -0.4620    1.4388   -0.5136 H   0  0  0  0  0  0  0  0  0  0  0  0
   -0.2243    0.7921    2.4650 H   0  0  0  0  0  0  0  0  0  0  0  0
   -0.3631    2.4006    1.7576 H   0  0  0  0  0  0  0  0  0  0  0  0
    1.9685    1.8414    2.2718 H   0  0  0  0  0  0  0  0  0  0  0  0
    1.7400    2.1089    0.5511 H   0  0  0  0  0  0  0  0  0  0  0  0
    1.8759   -0.5825    2.0010 H   0  0  0  0  0  0  0  0  0  0  0  0
    4.0587   -0.8855    1.0655 H   0  0  0  0  0  0  0  0  0  0  0  0
    4.0376    0.6881    1.7900 H   0  0  0  0  0  0  0  0  0  0  0  0
    3.7944    1.7959   -0.3794 H   0  0  0  0  0  0  0  0  0  0  0  0
    5.7239   -0.2823   -0.4711 H   0  0  0  0  0  0  0  0  0  0  0  0
    3.6810    0.5800   -2.4786 H   0  0  0  0  0  0  0  0  0  0  0  0
    3.8383   -0.9626   -1.6902 H   0  0  0  0  0  0  0  0  0  0  0  0
    1.4851    0.9728   -1.5410 H   0  0  0  0  0  0  0  0  0  0  0  0
    1.5179   -0.6050   -2.3051 H   0  0  0  0  0  0  0  0  0  0  0  0
    1.4517   -2.7122   -1.0043 H   0  0  0  0  0  0  0  0  0  0  0  0
    1.4139   -2.7042    0.7652 H   0  0  0  0  0  0  0  0  0  0  0  0
    2.8988   -2.3269   -0.0995 H   0  0  0  0  0  0  0  0  0  0  0  0
   -2.5233    1.9286    0.5143 H   0  0  0  0  0  0  0  0  0  0  0  0
   -2.6002    0.8562    2.6739 H   0  0  0  0  0  0  0  0  0  0  0  0
   -2.4063   -0.7548    1.9701 H   0  0  0  0  0  0  0  0  0  0  0  0
   -4.8101    1.1078    1.7785 H   0  0  0  0  0  0  0  0  0  0  0  0
   -4.7698   -0.6665    2.0777 H   0  0  0  0  0  0  0  0  0  0  0  0
  1  2  1  0
  2  3  1  0
  3  4  1  0
  4  5  1  0
  5  6  1  0
  6  7  1  0
  7  8  1  0
  8  9  1  0
  9 10  1  0
 10 11  1  0
 11 12  1  0
 11 13  1  0
 13 14  1  0
 14 15  1  0
 15 16  1  0
  6 17  1  0
 17 18  1  0
 18 19  1  0
 19 20  1  0
 20 21  2  0
 15  5  1  0
 15  9  1  0
 17  2  1  0
 20  2  1  0
  1 22  1  0
  1 23  1  0
  1 24  1  0
  3 25  1  0
  3 26  1  0
  4 27  1  0
  4 28  1  0
  5 29  1  0
  6 30  1  0
  7 31  1  0
  7 32  1  0
  8 33  1  0
  8 34  1  0
  9 35  1  0
 10 36  1  0
 10 37  1  0
 11 38  1  0
 12 39  1  0
 13 40  1  0
 13 41  1  0
 14 42  1  0
 14 43  1  0
 16 44  1  0
 16 45  1  0
 16 46  1  0
 17 47  1  0
 18 48  1  0
 18 49  1  0
 19 50  1  0
 19 51  1  0
M  END
>  <Energy>  (3) 
62.26937563083349

>  <Real charge>  (3) 
0

>  <Mult>  (3) 
1

$$$$
mol_233 206
     RDKit          3D

 51 54  0  0  0  0  0  0  0  0999 V2000
   -4.2683    0.6913    1.2892 C   0  0  0  0  0  0  0  0  0  0  0  0
   -3.0620   -0.0544    0.6880 C   0  0  0  0  0  0  0  0  0  0  0  0
   -2.1938   -0.5848    1.8290 C   0  0  0  0  0  0  0  0  0  0  0  0
   -0.8327   -1.0984    1.3809 C   0  0  0  0  0  0  0  0  0  0  0  0
   -0.0589   -0.0075    0.6249 C   0  0  0  0  0  0  0  0  0  0  0  0
   -0.8462    0.3644   -0.6597 C   0  0  0  0  0  0  0  0  0  0  0  0
   -0.1137    1.4590   -1.4620 C   0  0  0  0  0  0  0  0  0  0  0  0
    1.3476    1.1218   -1.7406 C   0  0  0  0  0  0  0  0  0  0  0  0
    2.0884    0.8096   -0.4394 C   0  0  0  0  0  0  0  0  0  0  0  0
    3.5918    0.6269   -0.6815 C   0  0  0  0  0  0  0  0  0  0  0  0
    4.3380    0.4219    0.6358 C   0  0  0  0  0  0  0  0  0  0  0  0
    5.7046    0.1241    0.3710 O   0  0  0  0  0  0  0  0  0  0  0  0
    3.7431   -0.7129    1.4622 C   0  0  0  0  0  0  0  0  0  0  0  0
    2.2331   -0.5618    1.6615 C   0  0  0  0  0  0  0  0  0  0  0  0
    1.4436   -0.3845    0.3310 C   0  0  0  0  0  0  0  0  0  0  0  0
    1.5322   -1.7103   -0.4684 C   0  0  0  0  0  0  0  0  0  0  0  0
   -2.3080    0.8145   -0.3525 C   0  0  0  0  0  0  0  0  0  0  0  0
   -3.1956    0.6998   -1.6093 C   0  0  0  0  0  0  0  0  0  0  0  0
   -3.6361   -0.7609   -1.6583 C   0  0  0  0  0  0  0  0  0  0  0  0
   -3.6209   -1.1574   -0.2032 C   0  0  0  0  0  0  0  0  0  0  0  0
   -4.0290   -2.2392    0.2015 O   0  0  0  0  0  0  0  0  0  0  0  0
   -5.0017    0.9860    0.5314 H   0  0  0  0  0  0  0  0  0  0  0  0
   -3.9467    1.5967    1.8155 H   0  0  0  0  0  0  0  0  0  0  0  0
   -4.8001    0.0558    2.0074 H   0  0  0  0  0  0  0  0  0  0  0  0
   -2.7141   -1.3902    2.3628 H   0  0  0  0  0  0  0  0  0  0  0  0
   -2.0304    0.2146    2.5642 H   0  0  0  0  0  0  0  0  0  0  0  0
   -0.2875   -1.4185    2.2738 H   0  0  0  0  0  0  0  0  0  0  0  0
   -0.9681   -1.9867    0.7532 H   0  0  0  0  0  0  0  0  0  0  0  0
   -0.0423    0.8866    1.2669 H   0  0  0  0  0  0  0  0  0  0  0  0
   -0.8930   -0.5280   -1.2956 H   0  0  0  0  0  0  0  0  0  0  0  0
   -0.1574    2.4069   -0.9097 H   0  0  0  0  0  0  0  0  0  0  0  0
   -0.6134    1.6356   -2.4201 H   0  0  0  0  0  0  0  0  0  0  0  0
    1.8162    1.9793   -2.2391 H   0  0  0  0  0  0  0  0  0  0  0  0
    1.4136    0.2829   -2.4424 H   0  0  0  0  0  0  0  0  0  0  0  0
    1.9896    1.7025    0.1979 H   0  0  0  0  0  0  0  0  0  0  0  0
    3.7902   -0.2058   -1.3667 H   0  0  0  0  0  0  0  0  0  0  0  0
    4.0015    1.5124   -1.1851 H   0  0  0  0  0  0  0  0  0  0  0  0
    4.3086    1.3475    1.2235 H   0  0  0  0  0  0  0  0  0  0  0  0
    6.0721    0.8629   -0.1435 H   0  0  0  0  0  0  0  0  0  0  0  0
    3.9730   -1.6778    0.9939 H   0  0  0  0  0  0  0  0  0  0  0  0
    4.2401   -0.7483    2.4399 H   0  0  0  0  0  0  0  0  0  0  0  0
    1.8773   -1.4402    2.2114 H   0  0  0  0  0  0  0  0  0  0  0  0
    2.0534    0.3055    2.3103 H   0  0  0  0  0  0  0  0  0  0  0  0
    2.5566   -1.9518   -0.7649 H   0  0  0  0  0  0  0  0  0  0  0  0
    0.9394   -1.6892   -1.3863 H   0  0  0  0  0  0  0  0  0  0  0  0
    1.1762   -2.5563    0.1295 H   0  0  0  0  0  0  0  0  0  0  0  0
   -2.2816    1.8577   -0.0118 H   0  0  0  0  0  0  0  0  0  0  0  0
   -2.6974    0.9939   -2.5366 H   0  0  0  0  0  0  0  0  0  0  0  0
   -4.0737    1.3490   -1.5080 H   0  0  0  0  0  0  0  0  0  0  0  0
   -4.6374   -0.8646   -2.0821 H   0  0  0  0  0  0  0  0  0  0  0  0
   -2.9202   -1.3798   -2.2058 H   0  0  0  0  0  0  0  0  0  0  0  0
  1  2  1  0
  2  3  1  0
  3  4  1  0
  4  5  1  0
  5  6  1  0
  6  7  1  0
  7  8  1  0
  8  9  1  0
  9 10  1  0
 10 11  1  0
 11 12  1  0
 11 13  1  0
 13 14  1  0
 14 15  1  0
 15 16  1  0
  6 17  1  0
 17 18  1  0
 18 19  1  0
 19 20  1  0
 20 21  2  0
 15  5  1  0
 15  9  1  0
 17  2  1  0
 20  2  1  0
  1 22  1  0
  1 23  1  0
  1 24  1  0
  3 25  1  0
  3 26  1  0
  4 27  1  0
  4 28  1  0
  5 29  1  0
  6 30  1  0
  7 31  1  0
  7 32  1  0
  8 33  1  0
  8 34  1  0
  9 35  1  0
 10 36  1  0
 10 37  1  0
 11 38  1  0
 12 39  1  0
 13 40  1  0
 13 41  1  0
 14 42  1  0
 14 43  1  0
 16 44  1  0
 16 45  1  0
 16 46  1  0
 17 47  1  0
 18 48  1  0
 18 49  1  0
 19 50  1  0
 19 51  1  0
M  END
>  <Energy>  (4) 
62.39243036674587

>  <Real charge>  (4) 
0

>  <Mult>  (4) 
1

$$$$
mol_233 341
     RDKit          3D

 51 54  0  0  0  0  0  0  0  0999 V2000
   -4.0135    1.2383    1.6258 C   0  0  0  0  0  0  0  0  0  0  0  0
   -2.9233    0.8950    0.5933 C   0  0  0  0  0  0  0  0  0  0  0  0
   -1.9279    2.0533    0.5262 C   0  0  0  0  0  0  0  0  0  0  0  0
   -0.6567    1.7302   -0.2462 C   0  0  0  0  0  0  0  0  0  0  0  0
    0.0437    0.4973    0.3455 C   0  0  0  0  0  0  0  0  0  0  0  0
   -0.8966   -0.7289    0.2005 C   0  0  0  0  0  0  0  0  0  0  0  0
   -0.2432   -2.0015    0.7767 C   0  0  0  0  0  0  0  0  0  0  0  0
    1.1565   -2.2587    0.2275 C   0  0  0  0  0  0  0  0  0  0  0  0
    2.0535   -1.0378    0.4408 C   0  0  0  0  0  0  0  0  0  0  0  0
    3.5095   -1.3369    0.0446 C   0  0  0  0  0  0  0  0  0  0  0  0
    4.4274   -0.1496    0.3363 C   0  0  0  0  0  0  0  0  0  0  0  0
    4.5416   -0.0022    1.7517 O   0  0  0  0  0  0  0  0  0  0  0  0
    3.9019    1.1498   -0.2688 C   0  0  0  0  0  0  0  0  0  0  0  0
    2.4344    1.4202    0.0887 C   0  0  0  0  0  0  0  0  0  0  0  0
    1.4803    0.2377   -0.2504 C   0  0  0  0  0  0  0  0  0  0  0  0
    1.4169    0.0884   -1.7926 C   0  0  0  0  0  0  0  0  0  0  0  0
   -2.2877   -0.4933    0.8663 C   0  0  0  0  0  0  0  0  0  0  0  0
   -3.3398   -1.4732    0.3067 C   0  0  0  0  0  0  0  0  0  0  0  0
   -3.8311   -0.8370   -0.9910 C   0  0  0  0  0  0  0  0  0  0  0  0
   -3.6315    0.6353   -0.7311 C   0  0  0  0  0  0  0  0  0  0  0  0
   -4.0144    1.5097   -1.4991 O   0  0  0  0  0  0  0  0  0  0  0  0
   -3.5953    1.2818    2.6374 H   0  0  0  0  0  0  0  0  0  0  0  0
   -4.4643    2.2136    1.4062 H   0  0  0  0  0  0  0  0  0  0  0  0
   -4.8322    0.5112    1.6318 H   0  0  0  0  0  0  0  0  0  0  0  0
   -2.3981    2.9359    0.0743 H   0  0  0  0  0  0  0  0  0  0  0  0
   -1.6414    2.3466    1.5452 H   0  0  0  0  0  0  0  0  0  0  0  0
   -0.9037    1.5693   -1.3019 H   0  0  0  0  0  0  0  0  0  0  0  0
   -0.0074    2.6096   -0.2006 H   0  0  0  0  0  0  0  0  0  0  0  0
    0.1751    0.6812    1.4229 H   0  0  0  0  0  0  0  0  0  0  0  0
   -1.0587   -0.9036   -0.8701 H   0  0  0  0  0  0  0  0  0  0  0  0
   -0.1827   -1.9175    1.8697 H   0  0  0  0  0  0  0  0  0  0  0  0
   -0.8604   -2.8814    0.5675 H   0  0  0  0  0  0  0  0  0  0  0  0
    1.5813   -3.1278    0.7447 H   0  0  0  0  0  0  0  0  0  0  0  0
    1.1019   -2.5272   -0.8335 H   0  0  0  0  0  0  0  0  0  0  0  0
    2.0612   -0.8472    1.5253 H   0  0  0  0  0  0  0  0  0  0  0  0
    3.5734   -1.6081   -1.0148 H   0  0  0  0  0  0  0  0  0  0  0  0
    3.8587   -2.2065    0.6161 H   0  0  0  0  0  0  0  0  0  0  0  0
    5.4311   -0.3621   -0.0479 H   0  0  0  0  0  0  0  0  0  0  0  0
    5.1556    0.7327    1.9209 H   0  0  0  0  0  0  0  0  0  0  0  0
    4.5027    1.9951    0.0884 H   0  0  0  0  0  0  0  0  0  0  0  0
    4.0177    1.1194   -1.3580 H   0  0  0  0  0  0  0  0  0  0  0  0
    2.3699    1.6454    1.1613 H   0  0  0  0  0  0  0  0  0  0  0  0
    2.1257    2.3309   -0.4369 H   0  0  0  0  0  0  0  0  0  0  0  0
    1.1196    1.0294   -2.2681 H   0  0  0  0  0  0  0  0  0  0  0  0
    0.7048   -0.6761   -2.1130 H   0  0  0  0  0  0  0  0  0  0  0  0
    2.3826   -0.1848   -2.2264 H   0  0  0  0  0  0  0  0  0  0  0  0
   -2.1803   -0.6435    1.9484 H   0  0  0  0  0  0  0  0  0  0  0  0
   -2.9618   -2.4838    0.1331 H   0  0  0  0  0  0  0  0  0  0  0  0
   -4.1742   -1.5696    1.0118 H   0  0  0  0  0  0  0  0  0  0  0  0
   -4.8836   -1.0629   -1.1759 H   0  0  0  0  0  0  0  0  0  0  0  0
   -3.2172   -1.1366   -1.8446 H   0  0  0  0  0  0  0  0  0  0  0  0
  1  2  1  0
  2  3  1  0
  3  4  1  0
  4  5  1  0
  5  6  1  0
  6  7  1  0
  7  8  1  0
  8  9  1  0
  9 10  1  0
 10 11  1  0
 11 12  1  0
 11 13  1  0
 13 14  1  0
 14 15  1  0
 15 16  1  0
  6 17  1  0
 17 18  1  0
 18 19  1  0
 19 20  1  0
 20 21  2  0
 15  5  1  0
 15  9  1  0
 17  2  1  0
 20  2  1  0
  1 22  1  0
  1 23  1  0
  1 24  1  0
  3 25  1  0
  3 26  1  0
  4 27  1  0
  4 28  1  0
  5 29  1  0
  6 30  1  0
  7 31  1  0
  7 32  1  0
  8 33  1  0
  8 34  1  0
  9 35  1  0
 10 36  1  0
 10 37  1  0
 11 38  1  0
 12 39  1  0
 13 40  1  0
 13 41  1  0
 14 42  1  0
 14 43  1  0
 16 44  1  0
 16 45  1  0
 16 46  1  0
 17 47  1  0
 18 48  1  0
 18 49  1  0
 19 50  1  0
 19 51  1  0
M  END
>  <Energy>  (5) 
62.5102636494421

>  <Real charge>  (5) 
0

>  <Mult>  (5) 
1

$$$$
