mol_826 479
     RDKit          3D

 28 28  0  0  0  0  0  0  0  0999 V2000
   -0.1589   -0.6987   -2.3992 O   0  0  0  0  0  0  0  0  0  0  0  0
    0.4064   -0.7613   -1.3104 C   0  0  0  0  0  0  0  0  0  0  0  0
    1.6251   -1.3736   -1.2076 N   0  0  0  0  0  0  0  0  0  0  0  0
    2.0481   -2.0022   -0.0792 C   0  0  0  0  0  0  0  0  0  0  0  0
    2.8579   -2.9222   -0.1249 O   0  0  0  0  0  0  0  0  0  0  0  0
    1.4629   -1.6304    1.0899 N   0  0  0  0  0  0  0  0  0  0  0  0
    0.2324   -1.0368    1.1545 C   0  0  0  0  0  0  0  0  0  0  0  0
   -0.4793   -1.2062    2.1413 O   0  0  0  0  0  0  0  0  0  0  0  0
   -0.1332   -0.1331   -0.0243 C   0  0  0  0  0  0  0  0  0  0  0  0
   -1.6717    0.0530   -0.1121 C   0  0  0  0  0  0  0  0  0  0  0  0
   -2.4706   -1.2365   -0.3125 C   0  0  0  0  0  0  0  0  0  0  0  0
    0.6225    1.2395    0.1824 C   0  0  0  0  0  0  0  0  0  0  0  0
    0.2535    1.9554    1.4921 C   0  0  0  0  0  0  0  0  0  0  0  0
    0.4277    2.2313   -0.9762 C   0  0  0  0  0  0  0  0  0  0  0  0
    1.9641   -1.7902   -2.0651 H   0  0  0  0  0  0  0  0  0  0  0  0
    1.6861   -2.2303    1.8734 H   0  0  0  0  0  0  0  0  0  0  0  0
   -1.9244    0.7234   -0.9416 H   0  0  0  0  0  0  0  0  0  0  0  0
   -2.0474    0.5287    0.8012 H   0  0  0  0  0  0  0  0  0  0  0  0
   -2.3278   -1.9397    0.5121 H   0  0  0  0  0  0  0  0  0  0  0  0
   -3.5395   -1.0022   -0.3618 H   0  0  0  0  0  0  0  0  0  0  0  0
   -2.2039   -1.7435   -1.2436 H   0  0  0  0  0  0  0  0  0  0  0  0
    1.7014    1.0362    0.2359 H   0  0  0  0  0  0  0  0  0  0  0  0
    0.4422    1.3264    2.3666 H   0  0  0  0  0  0  0  0  0  0  0  0
    0.8601    2.8601    1.6147 H   0  0  0  0  0  0  0  0  0  0  0  0
   -0.7962    2.2636    1.5071 H   0  0  0  0  0  0  0  0  0  0  0  0
   -0.6144    2.5514   -1.0685 H   0  0  0  0  0  0  0  0  0  0  0  0
    0.7456    1.8069   -1.9326 H   0  0  0  0  0  0  0  0  0  0  0  0
    1.0313    3.1312   -0.8116 H   0  0  0  0  0  0  0  0  0  0  0  0
  1  2  2  0
  2  3  1  0
  3  4  1  0
  4  5  2  0
  4  6  1  0
  6  7  1  0
  7  8  2  0
  7  9  1  0
  9 10  1  0
 10 11  1  0
  9 12  1  0
 12 13  1  0
 12 14  1  0
  9  2  1  0
  3 15  1  0
  6 16  1  0
 10 17  1  0
 10 18  1  0
 11 19  1  0
 11 20  1  0
 11 21  1  0
 12 22  1  0
 13 23  1  0
 13 24  1  0
 13 25  1  0
 14 26  1  0
 14 27  1  0
 14 28  1  0
M  END
>  <Energy>  (1) 
-122.02474921663264

>  <Real charge>  (1) 
0

>  <Mult>  (1) 
1

$$$$
mol_826 260
     RDKit          3D

 28 28  0  0  0  0  0  0  0  0999 V2000
    1.0867   -1.9925    0.9701 O   0  0  0  0  0  0  0  0  0  0  0  0
    1.2285   -0.8173    0.6446 C   0  0  0  0  0  0  0  0  0  0  0  0
    2.4354   -0.2059    0.8524 N   0  0  0  0  0  0  0  0  0  0  0  0
    2.8949    0.8305    0.1034 C   0  0  0  0  0  0  0  0  0  0  0  0
    4.0956    1.0478   -0.0206 O   0  0  0  0  0  0  0  0  0  0  0  0
    1.9692    1.5573   -0.5746 N   0  0  0  0  0  0  0  0  0  0  0  0
    0.7357    1.0716   -0.9082 C   0  0  0  0  0  0  0  0  0  0  0  0
    0.1739    1.4810   -1.9214 O   0  0  0  0  0  0  0  0  0  0  0  0
    0.1181    0.0699    0.0739 C   0  0  0  0  0  0  0  0  0  0  0  0
   -0.4238    0.8995    1.2813 C   0  0  0  0  0  0  0  0  0  0  0  0
   -1.5594    1.8656    0.9565 C   0  0  0  0  0  0  0  0  0  0  0  0
   -1.0005   -0.7620   -0.6479 C   0  0  0  0  0  0  0  0  0  0  0  0
   -0.4469   -1.6700   -1.7609 C   0  0  0  0  0  0  0  0  0  0  0  0
   -1.8900   -1.6025    0.2809 C   0  0  0  0  0  0  0  0  0  0  0  0
    3.1597   -0.8094    1.2194 H   0  0  0  0  0  0  0  0  0  0  0  0
    2.3621    2.2100   -1.2404 H   0  0  0  0  0  0  0  0  0  0  0  0
   -0.7545    0.2214    2.0785 H   0  0  0  0  0  0  0  0  0  0  0  0
    0.3875    1.4892    1.7294 H   0  0  0  0  0  0  0  0  0  0  0  0
   -1.2514    2.6146    0.2212 H   0  0  0  0  0  0  0  0  0  0  0  0
   -2.4430    1.3487    0.5741 H   0  0  0  0  0  0  0  0  0  0  0  0
   -1.8596    2.4002    1.8640 H   0  0  0  0  0  0  0  0  0  0  0  0
   -1.6742   -0.0535   -1.1493 H   0  0  0  0  0  0  0  0  0  0  0  0
   -1.2701   -2.1111   -2.3343 H   0  0  0  0  0  0  0  0  0  0  0  0
    0.1773   -1.1149   -2.4671 H   0  0  0  0  0  0  0  0  0  0  0  0
    0.1480   -2.4959   -1.3599 H   0  0  0  0  0  0  0  0  0  0  0  0
   -2.6696   -2.1096   -0.2994 H   0  0  0  0  0  0  0  0  0  0  0  0
   -1.3269   -2.3757    0.8095 H   0  0  0  0  0  0  0  0  0  0  0  0
   -2.4027   -0.9870    1.0244 H   0  0  0  0  0  0  0  0  0  0  0  0
  1  2  2  0
  2  3  1  0
  3  4  1  0
  4  5  2  0
  4  6  1  0
  6  7  1  0
  7  8  2  0
  7  9  1  0
  9 10  1  0
 10 11  1  0
  9 12  1  0
 12 13  1  0
 12 14  1  0
  9  2  1  0
  3 15  1  0
  6 16  1  0
 10 17  1  0
 10 18  1  0
 11 19  1  0
 11 20  1  0
 11 21  1  0
 12 22  1  0
 13 23  1  0
 13 24  1  0
 13 25  1  0
 14 26  1  0
 14 27  1  0
 14 28  1  0
M  END
>  <Energy>  (2) 
-121.55870128284722

>  <Real charge>  (2) 
0

>  <Mult>  (2) 
1

$$$$
mol_826 268
     RDKit          3D

 28 28  0  0  0  0  0  0  0  0999 V2000
    0.8707   -0.6283    2.0779 O   0  0  0  0  0  0  0  0  0  0  0  0
    0.9428   -0.4567    0.8626 C   0  0  0  0  0  0  0  0  0  0  0  0
    1.9978   -0.9757    0.1697 N   0  0  0  0  0  0  0  0  0  0  0  0
    2.4673   -0.4647   -0.9969 C   0  0  0  0  0  0  0  0  0  0  0  0
    3.6127   -0.6816   -1.3772 O   0  0  0  0  0  0  0  0  0  0  0  0
    1.6297    0.3476   -1.6919 N   0  0  0  0  0  0  0  0  0  0  0  0
    0.4492    0.8643   -1.2396 C   0  0  0  0  0  0  0  0  0  0  0  0
   -0.1283    1.7296   -1.8963 O   0  0  0  0  0  0  0  0  0  0  0  0
   -0.1162    0.2806    0.0512 C   0  0  0  0  0  0  0  0  0  0  0  0
   -0.6816    1.4551    0.9049 C   0  0  0  0  0  0  0  0  0  0  0  0
    0.3369    2.5450    1.2418 C   0  0  0  0  0  0  0  0  0  0  0  0
   -1.2737   -0.7102   -0.3566 C   0  0  0  0  0  0  0  0  0  0  0  0
   -2.1008   -1.2313    0.8288 C   0  0  0  0  0  0  0  0  0  0  0  0
   -0.8107   -1.9176   -1.1883 C   0  0  0  0  0  0  0  0  0  0  0  0
    2.6903   -1.4536    0.7309 H   0  0  0  0  0  0  0  0  0  0  0  0
    2.0062    0.7623   -2.5334 H   0  0  0  0  0  0  0  0  0  0  0  0
   -1.0737    1.0814    1.8581 H   0  0  0  0  0  0  0  0  0  0  0  0
   -1.5248    1.9242    0.3818 H   0  0  0  0  0  0  0  0  0  0  0  0
    0.7115    3.0444    0.3437 H   0  0  0  0  0  0  0  0  0  0  0  0
   -0.1336    3.3088    1.8698 H   0  0  0  0  0  0  0  0  0  0  0  0
    1.1912    2.1422    1.7937 H   0  0  0  0  0  0  0  0  0  0  0  0
   -1.9715   -0.1507   -0.9968 H   0  0  0  0  0  0  0  0  0  0  0  0
   -1.4832   -1.7835    1.5434 H   0  0  0  0  0  0  0  0  0  0  0  0
   -2.8867   -1.9109    0.4798 H   0  0  0  0  0  0  0  0  0  0  0  0
   -2.6053   -0.4189    1.3591 H   0  0  0  0  0  0  0  0  0  0  0  0
   -0.2892   -1.6093   -2.0985 H   0  0  0  0  0  0  0  0  0  0  0  0
   -1.6737   -2.5138   -1.5067 H   0  0  0  0  0  0  0  0  0  0  0  0
   -0.1537   -2.5788   -0.6150 H   0  0  0  0  0  0  0  0  0  0  0  0
  1  2  2  0
  2  3  1  0
  3  4  1  0
  4  5  2  0
  4  6  1  0
  6  7  1  0
  7  8  2  0
  7  9  1  0
  9 10  1  0
 10 11  1  0
  9 12  1  0
 12 13  1  0
 12 14  1  0
  9  2  1  0
  3 15  1  0
  6 16  1  0
 10 17  1  0
 10 18  1  0
 11 19  1  0
 11 20  1  0
 11 21  1  0
 12 22  1  0
 13 23  1  0
 13 24  1  0
 13 25  1  0
 14 26  1  0
 14 27  1  0
 14 28  1  0
M  END
>  <Energy>  (3) 
-121.36004748558979

>  <Real charge>  (3) 
0

>  <Mult>  (3) 
1

$$$$
