mol_940 141
     RDKit          3D

 58 62  0  0  0  0  0  0  0  0999 V2000
   -0.3481   -0.1993    1.9271 O   0  0  0  0  0  0  0  0  0  0  0  0
    0.1067    0.1596    0.6140 C   0  0  0  0  0  0  0  0  0  0  0  0
   -0.3148   -0.9095   -0.4079 C   0  0  0  0  0  0  0  0  0  0  0  0
   -1.7892   -1.3533   -0.2579 C   0  0  0  0  0  0  0  0  0  0  0  0
   -2.2174   -2.5233   -1.1486 C   0  0  0  0  0  0  0  0  0  0  0  0
   -1.6298   -2.7938   -2.3926 C   0  0  0  0  0  0  0  0  0  0  0  0
   -2.0632   -3.8719   -3.1689 C   0  0  0  0  0  0  0  0  0  0  0  0
   -3.0916   -4.6944   -2.7161 C   0  0  0  0  0  0  0  0  0  0  0  0
   -3.6934   -4.4371   -1.4880 C   0  0  0  0  0  0  0  0  0  0  0  0
   -3.2625   -3.3595   -0.7121 C   0  0  0  0  0  0  0  0  0  0  0  0
   -2.7804   -0.1974   -0.3029 C   0  0  0  0  0  0  0  0  0  0  0  0
   -3.4174    0.2728    0.7861 C   0  0  0  0  0  0  0  0  0  0  0  0
   -3.1372   -0.1400    2.0745 O   0  0  0  0  0  0  0  0  0  0  0  0
   -4.4746    1.2743    0.6698 C   0  0  0  0  0  0  0  0  0  0  0  0
   -5.1940    1.7665    1.7652 C   0  0  0  0  0  0  0  0  0  0  0  0
   -6.2122    2.7087    1.5821 C   0  0  0  0  0  0  0  0  0  0  0  0
   -6.5228    3.1664    0.3013 C   0  0  0  0  0  0  0  0  0  0  0  0
   -5.8146    2.6844   -0.7966 C   0  0  0  0  0  0  0  0  0  0  0  0
   -4.8019    1.7469   -0.5953 C   0  0  0  0  0  0  0  0  0  0  0  0
   -4.1013    1.3102   -1.7298 O   0  0  0  0  0  0  0  0  0  0  0  0
   -3.0288    0.4357   -1.6257 C   0  0  0  0  0  0  0  0  0  0  0  0
   -2.2957    0.2363   -2.5888 O   0  0  0  0  0  0  0  0  0  0  0  0
    1.6039    0.3858    0.6248 C   0  0  0  0  0  0  0  0  0  0  0  0
    2.4781   -0.5750    1.1517 C   0  0  0  0  0  0  0  0  0  0  0  0
    3.8596   -0.3576    1.1542 C   0  0  0  0  0  0  0  0  0  0  0  0
    4.4085    0.8225    0.6301 C   0  0  0  0  0  0  0  0  0  0  0  0
    3.5271    1.7777    0.1006 C   0  0  0  0  0  0  0  0  0  0  0  0
    2.1444    1.5636    0.0953 C   0  0  0  0  0  0  0  0  0  0  0  0
    5.8629    1.0499    0.6319 C   0  0  0  0  0  0  0  0  0  0  0  0
    6.7431    0.1086    0.0704 C   0  0  0  0  0  0  0  0  0  0  0  0
    8.1251    0.3222    0.0706 C   0  0  0  0  0  0  0  0  0  0  0  0
    8.6435    1.4839    0.6356 C   0  0  0  0  0  0  0  0  0  0  0  0
   10.5108    1.7754    0.6384 Br  0  0  0  0  0  0  0  0  0  0  0  0
    7.7942    2.4323    1.1985 C   0  0  0  0  0  0  0  0  0  0  0  0
    6.4128    2.2146    1.1948 C   0  0  0  0  0  0  0  0  0  0  0  0
    0.2860    0.1967    2.5560 H   0  0  0  0  0  0  0  0  0  0  0  0
   -0.3917    1.1062    0.3742 H   0  0  0  0  0  0  0  0  0  0  0  0
   -0.1024   -0.5345   -1.4162 H   0  0  0  0  0  0  0  0  0  0  0  0
    0.3112   -1.8039   -0.2810 H   0  0  0  0  0  0  0  0  0  0  0  0
   -1.8301   -1.8044    0.7440 H   0  0  0  0  0  0  0  0  0  0  0  0
   -0.8424   -2.1589   -2.7912 H   0  0  0  0  0  0  0  0  0  0  0  0
   -1.6012   -4.0615   -4.1344 H   0  0  0  0  0  0  0  0  0  0  0  0
   -3.4282   -5.5295   -3.3242 H   0  0  0  0  0  0  0  0  0  0  0  0
   -4.5011   -5.0724   -1.1343 H   0  0  0  0  0  0  0  0  0  0  0  0
   -3.7511   -3.1742    0.2433 H   0  0  0  0  0  0  0  0  0  0  0  0
   -2.1813   -0.3595    2.1321 H   0  0  0  0  0  0  0  0  0  0  0  0
   -4.9734    1.4147    2.7707 H   0  0  0  0  0  0  0  0  0  0  0  0
   -6.7649    3.0806    2.4415 H   0  0  0  0  0  0  0  0  0  0  0  0
   -7.3155    3.8968    0.1609 H   0  0  0  0  0  0  0  0  0  0  0  0
   -6.0458    3.0360   -1.7979 H   0  0  0  0  0  0  0  0  0  0  0  0
    2.0892   -1.5045    1.5642 H   0  0  0  0  0  0  0  0  0  0  0  0
    4.5095   -1.1201    1.5798 H   0  0  0  0  0  0  0  0  0  0  0  0
    3.9160    2.6986   -0.3307 H   0  0  0  0  0  0  0  0  0  0  0  0
    1.4975    2.3262   -0.3345 H   0  0  0  0  0  0  0  0  0  0  0  0
    6.3529   -0.7993   -0.3862 H   0  0  0  0  0  0  0  0  0  0  0  0
    8.7819   -0.4207   -0.3739 H   0  0  0  0  0  0  0  0  0  0  0  0
    8.1922    3.3402    1.6434 H   0  0  0  0  0  0  0  0  0  0  0  0
    5.7632    2.9610    1.6485 H   0  0  0  0  0  0  0  0  0  0  0  0
  1  2  1  0
  2  3  1  0
  3  4  1  0
  4  5  1  0
  5  6  2  0
  6  7  1  0
  7  8  2  0
  8  9  1  0
  9 10  2  0
  4 11  1  0
 11 12  2  0
 12 13  1  0
 12 14  1  0
 14 15  2  0
 15 16  1  0
 16 17  2  0
 17 18  1  0
 18 19  2  0
 19 20  1  0
 20 21  1  0
 21 22  2  0
  2 23  1  0
 23 24  2  0
 24 25  1  0
 25 26  2  0
 26 27  1  0
 27 28  2  0
 26 29  1  0
 29 30  2  0
 30 31  1  0
 31 32  2  0
 32 33  1  0
 32 34  1  0
 34 35  2  0
 10  5  1  0
 19 14  1  0
 21 11  1  0
 28 23  1  0
 35 29  1  0
  1 36  1  0
  2 37  1  0
  3 38  1  0
  3 39  1  0
  4 40  1  0
  6 41  1  0
  7 42  1  0
  8 43  1  0
  9 44  1  0
 10 45  1  0
 13 46  1  0
 15 47  1  0
 16 48  1  0
 17 49  1  0
 18 50  1  0
 24 51  1  0
 25 52  1  0
 27 53  1  0
 28 54  1  0
 30 55  1  0
 31 56  1  0
 34 57  1  0
 35 58  1  0
M  END
>  <Energy>  (1) 
92.39815535030613

>  <Real charge>  (1) 
0

>  <Mult>  (1) 
1

$$$$
mol_940 294
     RDKit          3D

 58 62  0  0  0  0  0  0  0  0999 V2000
    0.1960   -0.2156    1.9571 O   0  0  0  0  0  0  0  0  0  0  0  0
   -0.1823   -0.2536    0.5732 C   0  0  0  0  0  0  0  0  0  0  0  0
    0.4673    0.9127   -0.1902 C   0  0  0  0  0  0  0  0  0  0  0  0
    1.9683    1.0979    0.1352 C   0  0  0  0  0  0  0  0  0  0  0  0
    2.6267    2.3363   -0.4801 C   0  0  0  0  0  0  0  0  0  0  0  0
    3.7320    2.9117    0.1753 C   0  0  0  0  0  0  0  0  0  0  0  0
    4.3704    4.0386   -0.3456 C   0  0  0  0  0  0  0  0  0  0  0  0
    3.9194    4.6067   -1.5333 C   0  0  0  0  0  0  0  0  0  0  0  0
    2.8339    4.0453   -2.2007 C   0  0  0  0  0  0  0  0  0  0  0  0
    2.1928    2.9181   -1.6797 C   0  0  0  0  0  0  0  0  0  0  0  0
    2.7965   -0.1633   -0.0745 C   0  0  0  0  0  0  0  0  0  0  0  0
    3.2654   -0.9165    0.9383 C   0  0  0  0  0  0  0  0  0  0  0  0
    2.9289   -0.7132    2.2628 O   0  0  0  0  0  0  0  0  0  0  0  0
    4.1857   -2.0242    0.6931 C   0  0  0  0  0  0  0  0  0  0  0  0
    4.7324   -2.8123    1.7128 C   0  0  0  0  0  0  0  0  0  0  0  0
    5.6281   -3.8442    1.4116 C   0  0  0  0  0  0  0  0  0  0  0  0
    5.9881   -4.0969    0.0876 C   0  0  0  0  0  0  0  0  0  0  0  0
    5.4513   -3.3200   -0.9359 C   0  0  0  0  0  0  0  0  0  0  0  0
    4.5587   -2.2969   -0.6174 C   0  0  0  0  0  0  0  0  0  0  0  0
    4.0267   -1.5582   -1.6852 O   0  0  0  0  0  0  0  0  0  0  0  0
    3.0753   -0.5696   -1.4779 C   0  0  0  0  0  0  0  0  0  0  0  0
    2.4639   -0.0888   -2.4265 O   0  0  0  0  0  0  0  0  0  0  0  0
   -1.6910   -0.2552    0.4452 C   0  0  0  0  0  0  0  0  0  0  0  0
   -2.3326   -1.2226   -0.3372 C   0  0  0  0  0  0  0  0  0  0  0  0
   -3.7260   -1.2273   -0.4627 C   0  0  0  0  0  0  0  0  0  0  0  0
   -4.5176   -0.2674    0.1866 C   0  0  0  0  0  0  0  0  0  0  0  0
   -3.8672    0.7010    0.9662 C   0  0  0  0  0  0  0  0  0  0  0  0
   -2.4745    0.7098    1.0932 C   0  0  0  0  0  0  0  0  0  0  0  0
   -5.9834   -0.2739    0.0507 C   0  0  0  0  0  0  0  0  0  0  0  0
   -6.8154   -0.2866    1.1836 C   0  0  0  0  0  0  0  0  0  0  0  0
   -8.2081   -0.2935    1.0568 C   0  0  0  0  0  0  0  0  0  0  0  0
   -8.7855   -0.2863   -0.2097 C   0  0  0  0  0  0  0  0  0  0  0  0
  -10.6673   -0.2948   -0.3844 Br  0  0  0  0  0  0  0  0  0  0  0  0
   -7.9848   -0.2727   -1.3481 C   0  0  0  0  0  0  0  0  0  0  0  0
   -6.5926   -0.2671   -1.2160 C   0  0  0  0  0  0  0  0  0  0  0  0
   -0.5376   -0.6269    2.4541 H   0  0  0  0  0  0  0  0  0  0  0  0
    0.2062   -1.2020    0.1839 H   0  0  0  0  0  0  0  0  0  0  0  0
   -0.0429    1.8504    0.0711 H   0  0  0  0  0  0  0  0  0  0  0  0
    0.2978    0.7673   -1.2638 H   0  0  0  0  0  0  0  0  0  0  0  0
    1.9793    1.3441    1.2068 H   0  0  0  0  0  0  0  0  0  0  0  0
    4.1049    2.4811    1.1034 H   0  0  0  0  0  0  0  0  0  0  0  0
    5.2217    4.4696    0.1747 H   0  0  0  0  0  0  0  0  0  0  0  0
    4.4174    5.4809   -1.9433 H   0  0  0  0  0  0  0  0  0  0  0  0
    2.4884    4.4781   -3.1361 H   0  0  0  0  0  0  0  0  0  0  0  0
    1.3655    2.4930   -2.2425 H   0  0  0  0  0  0  0  0  0  0  0  0
    2.0097   -0.3689    2.3030 H   0  0  0  0  0  0  0  0  0  0  0  0
    4.4717   -2.6247    2.7522 H   0  0  0  0  0  0  0  0  0  0  0  0
    6.0473   -4.4470    2.2137 H   0  0  0  0  0  0  0  0  0  0  0  0
    6.6856   -4.8978   -0.1442 H   0  0  0  0  0  0  0  0  0  0  0  0
    5.7220   -3.5098   -1.9704 H   0  0  0  0  0  0  0  0  0  0  0  0
   -1.7566   -1.9835   -0.8607 H   0  0  0  0  0  0  0  0  0  0  0  0
   -4.1943   -1.9994   -1.0709 H   0  0  0  0  0  0  0  0  0  0  0  0
   -4.4447    1.4730    1.4717 H   0  0  0  0  0  0  0  0  0  0  0  0
   -2.0044    1.4833    1.6984 H   0  0  0  0  0  0  0  0  0  0  0  0
   -6.3797   -0.3034    2.1809 H   0  0  0  0  0  0  0  0  0  0  0  0
   -8.8273   -0.3068    1.9497 H   0  0  0  0  0  0  0  0  0  0  0  0
   -8.4286   -0.2635   -2.3399 H   0  0  0  0  0  0  0  0  0  0  0  0
   -5.9806   -0.2444   -2.1161 H   0  0  0  0  0  0  0  0  0  0  0  0
  1  2  1  0
  2  3  1  0
  3  4  1  0
  4  5  1  0
  5  6  2  0
  6  7  1  0
  7  8  2  0
  8  9  1  0
  9 10  2  0
  4 11  1  0
 11 12  2  0
 12 13  1  0
 12 14  1  0
 14 15  2  0
 15 16  1  0
 16 17  2  0
 17 18  1  0
 18 19  2  0
 19 20  1  0
 20 21  1  0
 21 22  2  0
  2 23  1  0
 23 24  2  0
 24 25  1  0
 25 26  2  0
 26 27  1  0
 27 28  2  0
 26 29  1  0
 29 30  2  0
 30 31  1  0
 31 32  2  0
 32 33  1  0
 32 34  1  0
 34 35  2  0
 10  5  1  0
 19 14  1  0
 21 11  1  0
 28 23  1  0
 35 29  1  0
  1 36  1  0
  2 37  1  0
  3 38  1  0
  3 39  1  0
  4 40  1  0
  6 41  1  0
  7 42  1  0
  8 43  1  0
  9 44  1  0
 10 45  1  0
 13 46  1  0
 15 47  1  0
 16 48  1  0
 17 49  1  0
 18 50  1  0
 24 51  1  0
 25 52  1  0
 27 53  1  0
 28 54  1  0
 30 55  1  0
 31 56  1  0
 34 57  1  0
 35 58  1  0
M  END
>  <Energy>  (2) 
92.40234617700081

>  <Real charge>  (2) 
0

>  <Mult>  (2) 
1

$$$$
