mol_219 387
     RDKit          3D

 34 34  0  0  0  0  0  0  0  0999 V2000
   -4.1235    1.6333    1.7935 C   0  0  0  0  0  0  0  0  0  0  0  0
   -3.8424    1.0866    0.4086 C   0  0  0  0  0  0  0  0  0  0  0  0
   -2.6268    1.6519   -0.0574 O   0  0  0  0  0  0  0  0  0  0  0  0
   -1.8060    0.9062   -1.2494 P   0  0  0  0  0  5  0  0  0  0  0  0
   -2.8824    0.6307   -2.8513 S   0  0  0  0  0  0  0  0  0  0  0  0
   -1.4411   -0.4764   -0.4716 O   0  0  0  0  0  0  0  0  0  0  0  0
   -0.6547   -1.4541   -1.1354 C   0  0  0  0  0  0  0  0  0  0  0  0
   -0.3011   -2.5392   -0.1390 C   0  0  0  0  0  0  0  0  0  0  0  0
   -0.0157    1.9902   -1.4121 S   0  0  0  0  0  0  0  0  0  0  0  0
    0.4424    2.1935    0.3206 C   0  0  0  0  0  0  0  0  0  0  0  0
    2.2235    2.5098    0.5111 S   0  0  0  0  0  0  0  0  0  0  0  0
    2.8394    0.8524    0.2852 C   0  0  0  0  0  0  0  0  0  0  0  0
    2.8076   -0.0649    1.3407 C   0  0  0  0  0  0  0  0  0  0  0  0
    3.2792   -1.3672    1.1545 C   0  0  0  0  0  0  0  0  0  0  0  0
    3.7852   -1.7496   -0.0864 C   0  0  0  0  0  0  0  0  0  0  0  0
    4.3475   -3.3578   -0.3202 Cl  0  0  0  0  0  0  0  0  0  0  0  0
    3.8344   -0.8384   -1.1392 C   0  0  0  0  0  0  0  0  0  0  0  0
    3.3665    0.4646   -0.9509 C   0  0  0  0  0  0  0  0  0  0  0  0
   -5.0598    1.2306    2.1896 H   0  0  0  0  0  0  0  0  0  0  0  0
   -3.3098    1.3777    2.4804 H   0  0  0  0  0  0  0  0  0  0  0  0
   -4.1899    2.7261    1.7711 H   0  0  0  0  0  0  0  0  0  0  0  0
   -4.6513    1.3664   -0.2727 H   0  0  0  0  0  0  0  0  0  0  0  0
   -3.7717   -0.0046    0.4477 H   0  0  0  0  0  0  0  0  0  0  0  0
   -1.2245   -1.8842   -1.9640 H   0  0  0  0  0  0  0  0  0  0  0  0
    0.2582   -0.9996   -1.5296 H   0  0  0  0  0  0  0  0  0  0  0  0
    0.3285   -3.3045   -0.6013 H   0  0  0  0  0  0  0  0  0  0  0  0
   -1.2079   -3.0150    0.2489 H   0  0  0  0  0  0  0  0  0  0  0  0
    0.2270   -2.1166    0.7215 H   0  0  0  0  0  0  0  0  0  0  0  0
    0.1568    1.3124    0.9020 H   0  0  0  0  0  0  0  0  0  0  0  0
   -0.1047    3.0499    0.7246 H   0  0  0  0  0  0  0  0  0  0  0  0
    2.4212    0.2251    2.3150 H   0  0  0  0  0  0  0  0  0  0  0  0
    3.2494   -2.0746    1.9790 H   0  0  0  0  0  0  0  0  0  0  0  0
    4.2363   -1.1317   -2.1055 H   0  0  0  0  0  0  0  0  0  0  0  0
    3.4103    1.1712   -1.7774 H   0  0  0  0  0  0  0  0  0  0  0  0
  1  2  1  0
  2  3  1  0
  3  4  1  0
  4  5  2  0
  4  6  1  0
  6  7  1  0
  7  8  1  0
  4  9  1  0
  9 10  1  0
 10 11  1  0
 11 12  1  0
 12 13  2  0
 13 14  1  0
 14 15  2  0
 15 16  1  0
 15 17  1  0
 17 18  2  0
 18 12  1  0
  1 19  1  0
  1 20  1  0
  1 21  1  0
  2 22  1  0
  2 23  1  0
  7 24  1  0
  7 25  1  0
  8 26  1  0
  8 27  1  0
  8 28  1  0
 10 29  1  0
 10 30  1  0
 13 31  1  0
 14 32  1  0
 17 33  1  0
 18 34  1  0
M  END
>  <Energy>  (1) 
-81.89524031277473

>  <Real charge>  (1) 
0

>  <Mult>  (1) 
1

$$$$
mol_219 41
     RDKit          3D

 34 34  0  0  0  0  0  0  0  0999 V2000
   -5.0343   -1.3106    2.2226 C   0  0  0  0  0  0  0  0  0  0  0  0
   -3.6836   -0.7030    2.5412 C   0  0  0  0  0  0  0  0  0  0  0  0
   -3.2195   -0.0108    1.3933 O   0  0  0  0  0  0  0  0  0  0  0  0
   -1.6333    0.3190    1.2591 P   0  0  0  0  0  5  0  0  0  0  0  0
   -0.9502    1.4496    2.6954 S   0  0  0  0  0  0  0  0  0  0  0  0
   -1.6437    1.0818   -0.1784 O   0  0  0  0  0  0  0  0  0  0  0  0
   -2.4056    2.2691   -0.3323 C   0  0  0  0  0  0  0  0  0  0  0  0
   -2.5462    2.5584   -1.8131 C   0  0  0  0  0  0  0  0  0  0  0  0
   -0.6621   -1.5037    0.8765 S   0  0  0  0  0  0  0  0  0  0  0  0
    0.9477   -0.9363    0.2934 C   0  0  0  0  0  0  0  0  0  0  0  0
    2.0007   -2.3520   -0.1420 S   0  0  0  0  0  0  0  0  0  0  0  0
    3.4206   -1.4777   -0.7695 C   0  0  0  0  0  0  0  0  0  0  0  0
    4.1949   -0.6596    0.0606 C   0  0  0  0  0  0  0  0  0  0  0  0
    5.3087    0.0116   -0.4522 C   0  0  0  0  0  0  0  0  0  0  0  0
    5.6533   -0.1422   -1.7936 C   0  0  0  0  0  0  0  0  0  0  0  0
    7.0233    0.6842   -2.4247 Cl  0  0  0  0  0  0  0  0  0  0  0  0
    4.8969   -0.9652   -2.6251 C   0  0  0  0  0  0  0  0  0  0  0  0
    3.7835   -1.6360   -2.1112 C   0  0  0  0  0  0  0  0  0  0  0  0
   -4.9543   -2.0071    1.3814 H   0  0  0  0  0  0  0  0  0  0  0  0
   -5.4353   -1.8463    3.0875 H   0  0  0  0  0  0  0  0  0  0  0  0
   -5.7470   -0.5338    1.9263 H   0  0  0  0  0  0  0  0  0  0  0  0
   -3.7801    0.0050    3.3698 H   0  0  0  0  0  0  0  0  0  0  0  0
   -2.9795   -1.4891    2.8289 H   0  0  0  0  0  0  0  0  0  0  0  0
   -3.3956    2.1519    0.1183 H   0  0  0  0  0  0  0  0  0  0  0  0
   -1.8872    3.0978    0.1586 H   0  0  0  0  0  0  0  0  0  0  0  0
   -3.0478    1.7283   -2.3217 H   0  0  0  0  0  0  0  0  0  0  0  0
   -3.1214    3.4735   -1.9793 H   0  0  0  0  0  0  0  0  0  0  0  0
   -1.5619    2.6698   -2.2798 H   0  0  0  0  0  0  0  0  0  0  0  0
    1.4253   -0.3491    1.0817 H   0  0  0  0  0  0  0  0  0  0  0  0
    0.8069   -0.3016   -0.5861 H   0  0  0  0  0  0  0  0  0  0  0  0
    3.9506   -0.5458    1.1142 H   0  0  0  0  0  0  0  0  0  0  0  0
    5.9045    0.6446    0.2003 H   0  0  0  0  0  0  0  0  0  0  0  0
    5.1682   -1.0929   -3.6697 H   0  0  0  0  0  0  0  0  0  0  0  0
    3.2037   -2.2818   -2.7674 H   0  0  0  0  0  0  0  0  0  0  0  0
  1  2  1  0
  2  3  1  0
  3  4  1  0
  4  5  2  0
  4  6  1  0
  6  7  1  0
  7  8  1  0
  4  9  1  0
  9 10  1  0
 10 11  1  0
 11 12  1  0
 12 13  2  0
 13 14  1  0
 14 15  2  0
 15 16  1  0
 15 17  1  0
 17 18  2  0
 18 12  1  0
  1 19  1  0
  1 20  1  0
  1 21  1  0
  2 22  1  0
  2 23  1  0
  7 24  1  0
  7 25  1  0
  8 26  1  0
  8 27  1  0
  8 28  1  0
 10 29  1  0
 10 30  1  0
 13 31  1  0
 14 32  1  0
 17 33  1  0
 18 34  1  0
M  END
>  <Energy>  (2) 
-81.76358515483864

>  <Real charge>  (2) 
0

>  <Mult>  (2) 
1

$$$$
mol_219 404
     RDKit          3D

 34 34  0  0  0  0  0  0  0  0999 V2000
   -4.9580   -2.6698   -0.3544 C   0  0  0  0  0  0  0  0  0  0  0  0
   -3.6581   -2.5986    0.4202 C   0  0  0  0  0  0  0  0  0  0  0  0
   -3.2421   -1.2436    0.4778 O   0  0  0  0  0  0  0  0  0  0  0  0
   -1.6840   -0.9104    0.8003 P   0  0  0  0  0  5  0  0  0  0  0  0
   -1.0918   -1.5718    2.5375 S   0  0  0  0  0  0  0  0  0  0  0  0
   -1.7461    0.7153    0.7444 O   0  0  0  0  0  0  0  0  0  0  0  0
   -2.5927    1.4115    1.6459 C   0  0  0  0  0  0  0  0  0  0  0  0
   -2.7505    2.8349    1.1508 C   0  0  0  0  0  0  0  0  0  0  0  0
   -0.5814   -1.4491   -0.9042 S   0  0  0  0  0  0  0  0  0  0  0  0
    0.9717   -0.5781   -0.6181 C   0  0  0  0  0  0  0  0  0  0  0  0
    2.1210   -0.8603   -1.9970 S   0  0  0  0  0  0  0  0  0  0  0  0
    3.5285    0.0410   -1.3819 C   0  0  0  0  0  0  0  0  0  0  0  0
    3.5060    1.4371   -1.2923 C   0  0  0  0  0  0  0  0  0  0  0  0
    4.6213    2.1297   -0.8127 C   0  0  0  0  0  0  0  0  0  0  0  0
    5.7616    1.4260   -0.4297 C   0  0  0  0  0  0  0  0  0  0  0  0
    7.1339    2.2785    0.1606 Cl  0  0  0  0  0  0  0  0  0  0  0  0
    5.7977    0.0365   -0.5264 C   0  0  0  0  0  0  0  0  0  0  0  0
    4.6821   -0.6551   -1.0066 C   0  0  0  0  0  0  0  0  0  0  0  0
   -5.7256   -2.0506    0.1215 H   0  0  0  0  0  0  0  0  0  0  0  0
   -5.3215   -3.6995   -0.4134 H   0  0  0  0  0  0  0  0  0  0  0  0
   -4.8223   -2.2841   -1.3703 H   0  0  0  0  0  0  0  0  0  0  0  0
   -3.8110   -2.9682    1.4386 H   0  0  0  0  0  0  0  0  0  0  0  0
   -2.8983   -3.2153   -0.0686 H   0  0  0  0  0  0  0  0  0  0  0  0
   -2.1375    1.4144    2.6405 H   0  0  0  0  0  0  0  0  0  0  0  0
   -3.5725    0.9284    1.7044 H   0  0  0  0  0  0  0  0  0  0  0  0
   -3.1887    2.8472    0.1473 H   0  0  0  0  0  0  0  0  0  0  0  0
   -3.3907    3.4133    1.8228 H   0  0  0  0  0  0  0  0  0  0  0  0
   -1.7758    3.3289    1.0789 H   0  0  0  0  0  0  0  0  0  0  0  0
    0.7666    0.4913   -0.5199 H   0  0  0  0  0  0  0  0  0  0  0  0
    1.4222   -0.9393    0.3105 H   0  0  0  0  0  0  0  0  0  0  0  0
    2.6289    1.9991   -1.6046 H   0  0  0  0  0  0  0  0  0  0  0  0
    4.5960    3.2143   -0.7472 H   0  0  0  0  0  0  0  0  0  0  0  0
    6.6883   -0.5138   -0.2345 H   0  0  0  0  0  0  0  0  0  0  0  0
    4.7228   -1.7396   -1.0845 H   0  0  0  0  0  0  0  0  0  0  0  0
  1  2  1  0
  2  3  1  0
  3  4  1  0
  4  5  2  0
  4  6  1  0
  6  7  1  0
  7  8  1  0
  4  9  1  0
  9 10  1  0
 10 11  1  0
 11 12  1  0
 12 13  2  0
 13 14  1  0
 14 15  2  0
 15 16  1  0
 15 17  1  0
 17 18  2  0
 18 12  1  0
  1 19  1  0
  1 20  1  0
  1 21  1  0
  2 22  1  0
  2 23  1  0
  7 24  1  0
  7 25  1  0
  8 26  1  0
  8 27  1  0
  8 28  1  0
 10 29  1  0
 10 30  1  0
 13 31  1  0
 14 32  1  0
 17 33  1  0
 18 34  1  0
M  END
>  <Energy>  (3) 
-81.64717807106545

>  <Real charge>  (3) 
0

>  <Mult>  (3) 
1

$$$$
mol_219 248
     RDKit          3D

 34 34  0  0  0  0  0  0  0  0999 V2000
   -1.3065    3.1704    1.8699 C   0  0  0  0  0  0  0  0  0  0  0  0
   -2.0517    2.9969    0.5620 C   0  0  0  0  0  0  0  0  0  0  0  0
   -1.1499    2.4719   -0.4000 O   0  0  0  0  0  0  0  0  0  0  0  0
   -1.7380    1.7088   -1.7122 P   0  0  0  0  0  5  0  0  0  0  0  0
   -2.9803    2.8100   -2.7344 S   0  0  0  0  0  0  0  0  0  0  0  0
   -2.4546    0.4514   -0.9678 O   0  0  0  0  0  0  0  0  0  0  0  0
   -3.1514   -0.5040   -1.7530 C   0  0  0  0  0  0  0  0  0  0  0  0
   -3.1520   -1.8247   -1.0111 C   0  0  0  0  0  0  0  0  0  0  0  0
   -0.0423    0.9277   -2.6741 S   0  0  0  0  0  0  0  0  0  0  0  0
    0.8768    0.2516   -1.2780 C   0  0  0  0  0  0  0  0  0  0  0  0
    2.3155   -0.6936   -1.8589 S   0  0  0  0  0  0  0  0  0  0  0  0
    2.9100   -1.3080   -0.2959 C   0  0  0  0  0  0  0  0  0  0  0  0
    3.3939   -0.4392    0.6884 C   0  0  0  0  0  0  0  0  0  0  0  0
    3.8601   -0.9435    1.9059 C   0  0  0  0  0  0  0  0  0  0  0  0
    3.8502   -2.3178    2.1358 C   0  0  0  0  0  0  0  0  0  0  0  0
    4.4222   -2.9380    3.6344 Cl  0  0  0  0  0  0  0  0  0  0  0  0
    3.3835   -3.1922    1.1567 C   0  0  0  0  0  0  0  0  0  0  0  0
    2.9179   -2.6869   -0.0604 C   0  0  0  0  0  0  0  0  0  0  0  0
   -0.9117    2.2101    2.2180 H   0  0  0  0  0  0  0  0  0  0  0  0
   -1.9624    3.5834    2.6413 H   0  0  0  0  0  0  0  0  0  0  0  0
   -0.4488    3.8388    1.7399 H   0  0  0  0  0  0  0  0  0  0  0  0
   -2.4221    3.9656    0.2137 H   0  0  0  0  0  0  0  0  0  0  0  0
   -2.9009    2.3220    0.7054 H   0  0  0  0  0  0  0  0  0  0  0  0
   -2.6750   -0.6261   -2.7304 H   0  0  0  0  0  0  0  0  0  0  0  0
   -4.1783   -0.1570   -1.9020 H   0  0  0  0  0  0  0  0  0  0  0  0
   -3.6917   -2.5898   -1.5762 H   0  0  0  0  0  0  0  0  0  0  0  0
   -3.6206   -1.7151   -0.0275 H   0  0  0  0  0  0  0  0  0  0  0  0
   -2.1270   -2.1696   -0.8390 H   0  0  0  0  0  0  0  0  0  0  0  0
    0.2208   -0.4063   -0.7011 H   0  0  0  0  0  0  0  0  0  0  0  0
    1.2055    1.0745   -0.6379 H   0  0  0  0  0  0  0  0  0  0  0  0
    3.4272    0.6339    0.5150 H   0  0  0  0  0  0  0  0  0  0  0  0
    4.2355   -0.2612    2.6642 H   0  0  0  0  0  0  0  0  0  0  0  0
    3.3831   -4.2651    1.3304 H   0  0  0  0  0  0  0  0  0  0  0  0
    2.5632   -3.3790   -0.8213 H   0  0  0  0  0  0  0  0  0  0  0  0
  1  2  1  0
  2  3  1  0
  3  4  1  0
  4  5  2  0
  4  6  1  0
  6  7  1  0
  7  8  1  0
  4  9  1  0
  9 10  1  0
 10 11  1  0
 11 12  1  0
 12 13  2  0
 13 14  1  0
 14 15  2  0
 15 16  1  0
 15 17  1  0
 17 18  2  0
 18 12  1  0
  1 19  1  0
  1 20  1  0
  1 21  1  0
  2 22  1  0
  2 23  1  0
  7 24  1  0
  7 25  1  0
  8 26  1  0
  8 27  1  0
  8 28  1  0
 10 29  1  0
 10 30  1  0
 13 31  1  0
 14 32  1  0
 17 33  1  0
 18 34  1  0
M  END
>  <Energy>  (4) 
-81.43354694177326

>  <Real charge>  (4) 
0

>  <Mult>  (4) 
1

$$$$
mol_219 457
     RDKit          3D

 34 34  0  0  0  0  0  0  0  0999 V2000
   -0.5055   -2.8442   -0.0806 C   0  0  0  0  0  0  0  0  0  0  0  0
   -1.5643   -1.7612   -0.1293 C   0  0  0  0  0  0  0  0  0  0  0  0
   -0.9688   -0.5352    0.2629 O   0  0  0  0  0  0  0  0  0  0  0  0
   -1.7832    0.8572    0.0527 P   0  0  0  0  0  5  0  0  0  0  0  0
   -3.4476    0.9090    1.0695 S   0  0  0  0  0  0  0  0  0  0  0  0
   -2.0086    0.7932   -1.5560 O   0  0  0  0  0  0  0  0  0  0  0  0
   -2.7038    1.8504   -2.1968 C   0  0  0  0  0  0  0  0  0  0  0  0
   -2.3517    1.8335   -3.6701 C   0  0  0  0  0  0  0  0  0  0  0  0
   -0.3551    2.3559    0.4058 S   0  0  0  0  0  0  0  0  0  0  0  0
    0.0689    2.0632    2.1356 C   0  0  0  0  0  0  0  0  0  0  0  0
    1.8537    2.2561    2.4277 S   0  0  0  0  0  0  0  0  0  0  0  0
    2.4217    0.6933    1.7840 C   0  0  0  0  0  0  0  0  0  0  0  0
    2.2889   -0.4763    2.5400 C   0  0  0  0  0  0  0  0  0  0  0  0
    2.7239   -1.6997    2.0241 C   0  0  0  0  0  0  0  0  0  0  0  0
    3.2951   -1.7517    0.7540 C   0  0  0  0  0  0  0  0  0  0  0  0
    3.8167   -3.2604    0.1136 Cl  0  0  0  0  0  0  0  0  0  0  0  0
    3.4443   -0.5899   -0.0004 C   0  0  0  0  0  0  0  0  0  0  0  0
    3.0119    0.6336    0.5176 C   0  0  0  0  0  0  0  0  0  0  0  0
    0.3285   -2.5980   -0.7460 H   0  0  0  0  0  0  0  0  0  0  0  0
   -0.0929   -2.9346    0.9295 H   0  0  0  0  0  0  0  0  0  0  0  0
   -0.9215   -3.8106   -0.3785 H   0  0  0  0  0  0  0  0  0  0  0  0
   -1.9665   -1.6826   -1.1435 H   0  0  0  0  0  0  0  0  0  0  0  0
   -2.3781   -2.0087    0.5582 H   0  0  0  0  0  0  0  0  0  0  0  0
   -3.7797    1.6981   -2.0692 H   0  0  0  0  0  0  0  0  0  0  0  0
   -2.4295    2.8146   -1.7588 H   0  0  0  0  0  0  0  0  0  0  0  0
   -2.8770    2.6287   -4.2063 H   0  0  0  0  0  0  0  0  0  0  0  0
   -2.6154    0.8702   -4.1191 H   0  0  0  0  0  0  0  0  0  0  0  0
   -1.2736    1.9654   -3.8097 H   0  0  0  0  0  0  0  0  0  0  0  0
   -0.4594    2.8011    2.7459 H   0  0  0  0  0  0  0  0  0  0  0  0
   -0.2588    1.0721    2.4606 H   0  0  0  0  0  0  0  0  0  0  0  0
    1.8495   -0.4465    3.5342 H   0  0  0  0  0  0  0  0  0  0  0  0
    2.6133   -2.6045    2.6157 H   0  0  0  0  0  0  0  0  0  0  0  0
    3.8935   -0.6275   -0.9891 H   0  0  0  0  0  0  0  0  0  0  0  0
    3.1310    1.5361   -0.0781 H   0  0  0  0  0  0  0  0  0  0  0  0
  1  2  1  0
  2  3  1  0
  3  4  1  0
  4  5  2  0
  4  6  1  0
  6  7  1  0
  7  8  1  0
  4  9  1  0
  9 10  1  0
 10 11  1  0
 11 12  1  0
 12 13  2  0
 13 14  1  0
 14 15  2  0
 15 16  1  0
 15 17  1  0
 17 18  2  0
 18 12  1  0
  1 19  1  0
  1 20  1  0
  1 21  1  0
  2 22  1  0
  2 23  1  0
  7 24  1  0
  7 25  1  0
  8 26  1  0
  8 27  1  0
  8 28  1  0
 10 29  1  0
 10 30  1  0
 13 31  1  0
 14 32  1  0
 17 33  1  0
 18 34  1  0
M  END
>  <Energy>  (5) 
-81.39593217661279

>  <Real charge>  (5) 
0

>  <Mult>  (5) 
1

$$$$
mol_219 108
     RDKit          3D

 34 34  0  0  0  0  0  0  0  0999 V2000
   -0.6925    1.7286    2.0476 C   0  0  0  0  0  0  0  0  0  0  0  0
   -1.0280    0.5335    1.1787 C   0  0  0  0  0  0  0  0  0  0  0  0
   -1.6365    1.0034   -0.0130 O   0  0  0  0  0  0  0  0  0  0  0  0
   -1.9904   -0.0408   -1.2095 P   0  0  0  0  0  5  0  0  0  0  0  0
   -3.1860    0.7988   -2.4987 S   0  0  0  0  0  0  0  0  0  0  0  0
   -2.7120   -1.2142   -0.3466 O   0  0  0  0  0  0  0  0  0  0  0  0
   -3.2512   -2.3364   -1.0264 C   0  0  0  0  0  0  0  0  0  0  0  0
   -3.3531   -3.4875   -0.0469 C   0  0  0  0  0  0  0  0  0  0  0  0
   -0.1592   -0.8031   -1.9037 S   0  0  0  0  0  0  0  0  0  0  0  0
    0.6186    0.6825   -2.5742 C   0  0  0  0  0  0  0  0  0  0  0  0
    2.4284    0.5103   -2.6485 S   0  0  0  0  0  0  0  0  0  0  0  0
    2.8185    0.7355   -0.9236 C   0  0  0  0  0  0  0  0  0  0  0  0
    3.1795   -0.3677   -0.1435 C   0  0  0  0  0  0  0  0  0  0  0  0
    3.4717   -0.2056    1.2133 C   0  0  0  0  0  0  0  0  0  0  0  0
    3.4133    1.0629    1.7864 C   0  0  0  0  0  0  0  0  0  0  0  0
    3.7583    1.2621    3.4592 Cl  0  0  0  0  0  0  0  0  0  0  0  0
    3.0731    2.1711    1.0131 C   0  0  0  0  0  0  0  0  0  0  0  0
    2.7775    2.0075   -0.3429 C   0  0  0  0  0  0  0  0  0  0  0  0
   -0.0391    2.4249    1.5125 H   0  0  0  0  0  0  0  0  0  0  0  0
   -1.6009    2.2827    2.3064 H   0  0  0  0  0  0  0  0  0  0  0  0
   -0.1966    1.4142    2.9702 H   0  0  0  0  0  0  0  0  0  0  0  0
   -1.7201   -0.1260    1.7105 H   0  0  0  0  0  0  0  0  0  0  0  0
   -0.1163   -0.0219    0.9447 H   0  0  0  0  0  0  0  0  0  0  0  0
   -2.6146   -2.6198   -1.8698 H   0  0  0  0  0  0  0  0  0  0  0  0
   -4.2452   -2.0796   -1.4048 H   0  0  0  0  0  0  0  0  0  0  0  0
   -2.3659   -3.7400    0.3542 H   0  0  0  0  0  0  0  0  0  0  0  0
   -3.7759   -4.3737   -0.5283 H   0  0  0  0  0  0  0  0  0  0  0  0
   -3.9829   -3.2141    0.8062 H   0  0  0  0  0  0  0  0  0  0  0  0
    0.3496    1.5598   -1.9793 H   0  0  0  0  0  0  0  0  0  0  0  0
    0.2466    0.8408   -3.5902 H   0  0  0  0  0  0  0  0  0  0  0  0
    3.2288   -1.3614   -0.5841 H   0  0  0  0  0  0  0  0  0  0  0  0
    3.7450   -1.0702    1.8124 H   0  0  0  0  0  0  0  0  0  0  0  0
    3.0365    3.1626    1.4570 H   0  0  0  0  0  0  0  0  0  0  0  0
    2.5210    2.8808   -0.9382 H   0  0  0  0  0  0  0  0  0  0  0  0
  1  2  1  0
  2  3  1  0
  3  4  1  0
  4  5  2  0
  4  6  1  0
  6  7  1  0
  7  8  1  0
  4  9  1  0
  9 10  1  0
 10 11  1  0
 11 12  1  0
 12 13  2  0
 13 14  1  0
 14 15  2  0
 15 16  1  0
 15 17  1  0
 17 18  2  0
 18 12  1  0
  1 19  1  0
  1 20  1  0
  1 21  1  0
  2 22  1  0
  2 23  1  0
  7 24  1  0
  7 25  1  0
  8 26  1  0
  8 27  1  0
  8 28  1  0
 10 29  1  0
 10 30  1  0
 13 31  1  0
 14 32  1  0
 17 33  1  0
 18 34  1  0
M  END
>  <Energy>  (6) 
-81.38935471738132

>  <Real charge>  (6) 
0

>  <Mult>  (6) 
1

$$$$
mol_219 548
     RDKit          3D

 34 34  0  0  0  0  0  0  0  0999 V2000
   -0.8809    3.4871   -1.2800 C   0  0  0  0  0  0  0  0  0  0  0  0
   -2.1556    2.7357   -0.9539 C   0  0  0  0  0  0  0  0  0  0  0  0
   -1.8996    1.8776    0.1470 O   0  0  0  0  0  0  0  0  0  0  0  0
   -2.8728    0.5990    0.4063 P   0  0  0  0  0  5  0  0  0  0  0  0
   -4.7495    1.0979    0.5786 S   0  0  0  0  0  0  0  0  0  0  0  0
   -2.5513   -0.2369   -0.9529 O   0  0  0  0  0  0  0  0  0  0  0  0
   -3.2293   -1.4633   -1.1799 C   0  0  0  0  0  0  0  0  0  0  0  0
   -2.3591   -2.3353   -2.0613 C   0  0  0  0  0  0  0  0  0  0  0  0
   -1.9529   -0.4592    1.9698 S   0  0  0  0  0  0  0  0  0  0  0  0
   -0.2253   -0.4209    1.4552 C   0  0  0  0  0  0  0  0  0  0  0  0
    0.7842   -1.4814    2.5305 S   0  0  0  0  0  0  0  0  0  0  0  0
    2.3911   -1.1372    1.8435 C   0  0  0  0  0  0  0  0  0  0  0  0
    3.3375   -0.4565    2.6163 C   0  0  0  0  0  0  0  0  0  0  0  0
    4.6053   -0.1804    2.0966 C   0  0  0  0  0  0  0  0  0  0  0  0
    4.9289   -0.5933    0.8060 C   0  0  0  0  0  0  0  0  0  0  0  0
    6.4882   -0.2535    0.1646 Cl  0  0  0  0  0  0  0  0  0  0  0  0
    3.9976   -1.2838    0.0327 C   0  0  0  0  0  0  0  0  0  0  0  0
    2.7299   -1.5590    0.5531 C   0  0  0  0  0  0  0  0  0  0  0  0
   -0.0769    2.7885   -1.5346 H   0  0  0  0  0  0  0  0  0  0  0  0
   -1.0343    4.1704   -2.1199 H   0  0  0  0  0  0  0  0  0  0  0  0
   -0.5396    4.0630   -0.4134 H   0  0  0  0  0  0  0  0  0  0  0  0
   -2.4805    2.1600   -1.8258 H   0  0  0  0  0  0  0  0  0  0  0  0
   -2.9444    3.4427   -0.6805 H   0  0  0  0  0  0  0  0  0  0  0  0
   -4.1794   -1.2536   -1.6805 H   0  0  0  0  0  0  0  0  0  0  0  0
   -3.4340   -1.9757   -0.2350 H   0  0  0  0  0  0  0  0  0  0  0  0
   -2.1412   -1.8314   -3.0087 H   0  0  0  0  0  0  0  0  0  0  0  0
   -1.3969   -2.5326   -1.5769 H   0  0  0  0  0  0  0  0  0  0  0  0
   -2.8498   -3.2893   -2.2733 H   0  0  0  0  0  0  0  0  0  0  0  0
    0.1412    0.6082    1.5064 H   0  0  0  0  0  0  0  0  0  0  0  0
   -0.1532   -0.7716    0.4223 H   0  0  0  0  0  0  0  0  0  0  0  0
    3.0970   -0.1359    3.6279 H   0  0  0  0  0  0  0  0  0  0  0  0
    5.3325    0.3516    2.7044 H   0  0  0  0  0  0  0  0  0  0  0  0
    4.2534   -1.6160   -0.9701 H   0  0  0  0  0  0  0  0  0  0  0  0
    2.0195   -2.1152   -0.0539 H   0  0  0  0  0  0  0  0  0  0  0  0
  1  2  1  0
  2  3  1  0
  3  4  1  0
  4  5  2  0
  4  6  1  0
  6  7  1  0
  7  8  1  0
  4  9  1  0
  9 10  1  0
 10 11  1  0
 11 12  1  0
 12 13  2  0
 13 14  1  0
 14 15  2  0
 15 16  1  0
 15 17  1  0
 17 18  2  0
 18 12  1  0
  1 19  1  0
  1 20  1  0
  1 21  1  0
  2 22  1  0
  2 23  1  0
  7 24  1  0
  7 25  1  0
  8 26  1  0
  8 27  1  0
  8 28  1  0
 10 29  1  0
 10 30  1  0
 13 31  1  0
 14 32  1  0
 17 33  1  0
 18 34  1  0
M  END
>  <Energy>  (7) 
-81.35882550283058

>  <Real charge>  (7) 
0

>  <Mult>  (7) 
1

$$$$
mol_219 221
     RDKit          3D

 34 34  0  0  0  0  0  0  0  0999 V2000
   -2.8015   -2.4209   -2.5140 C   0  0  0  0  0  0  0  0  0  0  0  0
   -1.9311   -1.2024   -2.2842 C   0  0  0  0  0  0  0  0  0  0  0  0
   -2.4120   -0.5151   -1.1402 O   0  0  0  0  0  0  0  0  0  0  0  0
   -1.4209    0.5141   -0.3649 P   0  0  0  0  0  5  0  0  0  0  0  0
   -0.8076    1.9925   -1.4813 S   0  0  0  0  0  0  0  0  0  0  0  0
   -2.4237    1.0051    0.8189 O   0  0  0  0  0  0  0  0  0  0  0  0
   -3.6369    1.6579    0.4785 C   0  0  0  0  0  0  0  0  0  0  0  0
   -4.5359    1.6630    1.6983 C   0  0  0  0  0  0  0  0  0  0  0  0
    0.0186   -0.6547    0.6211 S   0  0  0  0  0  0  0  0  0  0  0  0
    0.7036    0.5337    1.7927 C   0  0  0  0  0  0  0  0  0  0  0  0
    2.0997   -0.1622    2.7291 S   0  0  0  0  0  0  0  0  0  0  0  0
    3.3490   -0.2193    1.4568 C   0  0  0  0  0  0  0  0  0  0  0  0
    3.8886   -1.4564    1.0875 C   0  0  0  0  0  0  0  0  0  0  0  0
    4.8724   -1.5310    0.0977 C   0  0  0  0  0  0  0  0  0  0  0  0
    5.3239   -0.3656   -0.5174 C   0  0  0  0  0  0  0  0  0  0  0  0
    6.5340   -0.4558   -1.7366 Cl  0  0  0  0  0  0  0  0  0  0  0  0
    4.8042    0.8731   -0.1473 C   0  0  0  0  0  0  0  0  0  0  0  0
    3.8207    0.9465    0.8434 C   0  0  0  0  0  0  0  0  0  0  0  0
   -2.7686   -3.0867   -1.6453 H   0  0  0  0  0  0  0  0  0  0  0  0
   -2.4714   -2.9756   -3.3967 H   0  0  0  0  0  0  0  0  0  0  0  0
   -3.8476   -2.1278   -2.6514 H   0  0  0  0  0  0  0  0  0  0  0  0
   -0.8907   -1.5087   -2.1418 H   0  0  0  0  0  0  0  0  0  0  0  0
   -1.9875   -0.5359   -3.1501 H   0  0  0  0  0  0  0  0  0  0  0  0
   -3.4209    2.6862    0.1740 H   0  0  0  0  0  0  0  0  0  0  0  0
   -4.1343    1.1397   -0.3466 H   0  0  0  0  0  0  0  0  0  0  0  0
   -4.7460    0.6395    2.0260 H   0  0  0  0  0  0  0  0  0  0  0  0
   -4.0473    2.1717    2.5359 H   0  0  0  0  0  0  0  0  0  0  0  0
   -5.4827    2.1663    1.4834 H   0  0  0  0  0  0  0  0  0  0  0  0
   -0.0781    0.8033    2.5085 H   0  0  0  0  0  0  0  0  0  0  0  0
    1.0090    1.4477    1.2774 H   0  0  0  0  0  0  0  0  0  0  0  0
    3.5423   -2.3720    1.5622 H   0  0  0  0  0  0  0  0  0  0  0  0
    5.2795   -2.4980   -0.1851 H   0  0  0  0  0  0  0  0  0  0  0  0
    5.1614    1.7838   -0.6208 H   0  0  0  0  0  0  0  0  0  0  0  0
    3.4379    1.9221    1.1324 H   0  0  0  0  0  0  0  0  0  0  0  0
  1  2  1  0
  2  3  1  0
  3  4  1  0
  4  5  2  0
  4  6  1  0
  6  7  1  0
  7  8  1  0
  4  9  1  0
  9 10  1  0
 10 11  1  0
 11 12  1  0
 12 13  2  0
 13 14  1  0
 14 15  2  0
 15 16  1  0
 15 17  1  0
 17 18  2  0
 18 12  1  0
  1 19  1  0
  1 20  1  0
  1 21  1  0
  2 22  1  0
  2 23  1  0
  7 24  1  0
  7 25  1  0
  8 26  1  0
  8 27  1  0
  8 28  1  0
 10 29  1  0
 10 30  1  0
 13 31  1  0
 14 32  1  0
 17 33  1  0
 18 34  1  0
M  END
>  <Energy>  (8) 
-81.27639957256181

>  <Real charge>  (8) 
0

>  <Mult>  (8) 
1

$$$$
mol_219 361
     RDKit          3D

 34 34  0  0  0  0  0  0  0  0999 V2000
   -1.6279    2.7440   -1.7040 C   0  0  0  0  0  0  0  0  0  0  0  0
   -2.2434    2.0893   -0.4838 C   0  0  0  0  0  0  0  0  0  0  0  0
   -1.2500    1.2960    0.1461 O   0  0  0  0  0  0  0  0  0  0  0  0
   -1.6894    0.2087    1.2745 P   0  0  0  0  0  5  0  0  0  0  0  0
   -2.5764    1.0388    2.8007 S   0  0  0  0  0  0  0  0  0  0  0  0
   -2.6775   -0.7187    0.3766 O   0  0  0  0  0  0  0  0  0  0  0  0
   -3.3082   -1.8369    0.9799 C   0  0  0  0  0  0  0  0  0  0  0  0
   -3.7386   -2.7934   -0.1132 C   0  0  0  0  0  0  0  0  0  0  0  0
    0.0517   -0.9143    1.6187 S   0  0  0  0  0  0  0  0  0  0  0  0
    1.1808    0.3532    2.2301 C   0  0  0  0  0  0  0  0  0  0  0  0
    2.8892   -0.2622    2.3406 S   0  0  0  0  0  0  0  0  0  0  0  0
    3.3303   -0.2659    0.6128 C   0  0  0  0  0  0  0  0  0  0  0  0
    3.5421   -1.4843   -0.0409 C   0  0  0  0  0  0  0  0  0  0  0  0
    3.8909   -1.5074   -1.3939 C   0  0  0  0  0  0  0  0  0  0  0  0
    4.0370   -0.3100   -2.0909 C   0  0  0  0  0  0  0  0  0  0  0  0
    4.4646   -0.3364   -3.7568 Cl  0  0  0  0  0  0  0  0  0  0  0  0
    3.8422    0.9097   -1.4455 C   0  0  0  0  0  0  0  0  0  0  0  0
    3.4930    0.9316   -0.0924 C   0  0  0  0  0  0  0  0  0  0  0  0
   -1.2599    1.9858   -2.4033 H   0  0  0  0  0  0  0  0  0  0  0  0
   -2.3579    3.3747   -2.2189 H   0  0  0  0  0  0  0  0  0  0  0  0
   -0.7675    3.3588   -1.4195 H   0  0  0  0  0  0  0  0  0  0  0  0
   -3.0949    1.4717   -0.7841 H   0  0  0  0  0  0  0  0  0  0  0  0
   -2.5895    2.8580    0.2133 H   0  0  0  0  0  0  0  0  0  0  0  0
   -2.6242   -2.3411    1.6687 H   0  0  0  0  0  0  0  0  0  0  0  0
   -4.1832   -1.4932    1.5397 H   0  0  0  0  0  0  0  0  0  0  0  0
   -4.2416   -3.6679    0.3089 H   0  0  0  0  0  0  0  0  0  0  0  0
   -4.4190   -2.2982   -0.8139 H   0  0  0  0  0  0  0  0  0  0  0  0
   -2.8729   -3.1294   -0.6935 H   0  0  0  0  0  0  0  0  0  0  0  0
    1.1368    1.2427    1.5958 H   0  0  0  0  0  0  0  0  0  0  0  0
    0.8636    0.6454    3.2349 H   0  0  0  0  0  0  0  0  0  0  0  0
    3.4301   -2.4240    0.4958 H   0  0  0  0  0  0  0  0  0  0  0  0
    4.0469   -2.4597   -1.8935 H   0  0  0  0  0  0  0  0  0  0  0  0
    3.9647    1.8444   -1.9862 H   0  0  0  0  0  0  0  0  0  0  0  0
    3.3582    1.8899    0.4030 H   0  0  0  0  0  0  0  0  0  0  0  0
  1  2  1  0
  2  3  1  0
  3  4  1  0
  4  5  2  0
  4  6  1  0
  6  7  1  0
  7  8  1  0
  4  9  1  0
  9 10  1  0
 10 11  1  0
 11 12  1  0
 12 13  2  0
 13 14  1  0
 14 15  2  0
 15 16  1  0
 15 17  1  0
 17 18  2  0
 18 12  1  0
  1 19  1  0
  1 20  1  0
  1 21  1  0
  2 22  1  0
  2 23  1  0
  7 24  1  0
  7 25  1  0
  8 26  1  0
  8 27  1  0
  8 28  1  0
 10 29  1  0
 10 30  1  0
 13 31  1  0
 14 32  1  0
 17 33  1  0
 18 34  1  0
M  END
>  <Energy>  (9) 
-81.17011780933531

>  <Real charge>  (9) 
0

>  <Mult>  (9) 
1

$$$$
mol_219 143
     RDKit          3D

 34 34  0  0  0  0  0  0  0  0999 V2000
   -4.1392    2.6317    1.1262 C   0  0  0  0  0  0  0  0  0  0  0  0
   -3.4139    2.5719   -0.2026 C   0  0  0  0  0  0  0  0  0  0  0  0
   -2.8235    1.2884   -0.3357 O   0  0  0  0  0  0  0  0  0  0  0  0
   -1.5531    1.1009   -1.3358 P   0  0  0  0  0  5  0  0  0  0  0  0
   -1.9484    1.6464   -3.1656 S   0  0  0  0  0  0  0  0  0  0  0  0
   -1.3943   -0.5122   -1.1871 O   0  0  0  0  0  0  0  0  0  0  0  0
   -0.3750   -1.1775   -1.9170 C   0  0  0  0  0  0  0  0  0  0  0  0
   -0.1918   -2.5619   -1.3296 C   0  0  0  0  0  0  0  0  0  0  0  0
    0.0917    1.9447   -0.3368 S   0  0  0  0  0  0  0  0  0  0  0  0
   -0.0333    1.1690    1.2879 C   0  0  0  0  0  0  0  0  0  0  0  0
    1.5346    1.2783    2.2024 S   0  0  0  0  0  0  0  0  0  0  0  0
    2.4168   -0.0598    1.4222 C   0  0  0  0  0  0  0  0  0  0  0  0
    2.2328   -1.3756    1.8598 C   0  0  0  0  0  0  0  0  0  0  0  0
    2.9137   -2.4251    1.2370 C   0  0  0  0  0  0  0  0  0  0  0  0
    3.7814   -2.1569    0.1801 C   0  0  0  0  0  0  0  0  0  0  0  0
    4.6072   -3.4503   -0.5961 Cl  0  0  0  0  0  0  0  0  0  0  0  0
    3.9821   -0.8479   -0.2528 C   0  0  0  0  0  0  0  0  0  0  0  0
    3.3034    0.2012    0.3726 C   0  0  0  0  0  0  0  0  0  0  0  0
   -3.4423    2.4608    1.9534 H   0  0  0  0  0  0  0  0  0  0  0  0
   -4.9020    1.8484    1.1853 H   0  0  0  0  0  0  0  0  0  0  0  0
   -4.6200    3.6040    1.2650 H   0  0  0  0  0  0  0  0  0  0  0  0
   -2.6498    3.3540   -0.2454 H   0  0  0  0  0  0  0  0  0  0  0  0
   -4.1233    2.7242   -1.0214 H   0  0  0  0  0  0  0  0  0  0  0  0
    0.5641   -0.6202   -1.8553 H   0  0  0  0  0  0  0  0  0  0  0  0
   -0.6728   -1.2563   -2.9666 H   0  0  0  0  0  0  0  0  0  0  0  0
    0.6028   -3.1050   -1.8488 H   0  0  0  0  0  0  0  0  0  0  0  0
    0.0566   -2.5001   -0.2656 H   0  0  0  0  0  0  0  0  0  0  0  0
   -1.1203   -3.1376   -1.4049 H   0  0  0  0  0  0  0  0  0  0  0  0
   -0.8021    1.6936    1.8619 H   0  0  0  0  0  0  0  0  0  0  0  0
   -0.3413    0.1239    1.1973 H   0  0  0  0  0  0  0  0  0  0  0  0
    1.5625   -1.5954    2.6875 H   0  0  0  0  0  0  0  0  0  0  0  0
    2.7633   -3.4450    1.5811 H   0  0  0  0  0  0  0  0  0  0  0  0
    4.6648   -0.6354   -1.0714 H   0  0  0  0  0  0  0  0  0  0  0  0
    3.4686    1.2209    0.0306 H   0  0  0  0  0  0  0  0  0  0  0  0
  1  2  1  0
  2  3  1  0
  3  4  1  0
  4  5  2  0
  4  6  1  0
  6  7  1  0
  7  8  1  0
  4  9  1  0
  9 10  1  0
 10 11  1  0
 11 12  1  0
 12 13  2  0
 13 14  1  0
 14 15  2  0
 15 16  1  0
 15 17  1  0
 17 18  2  0
 18 12  1  0
  1 19  1  0
  1 20  1  0
  1 21  1  0
  2 22  1  0
  2 23  1  0
  7 24  1  0
  7 25  1  0
  8 26  1  0
  8 27  1  0
  8 28  1  0
 10 29  1  0
 10 30  1  0
 13 31  1  0
 14 32  1  0
 17 33  1  0
 18 34  1  0
M  END
>  <Energy>  (10) 
-81.11893711050762

>  <Real charge>  (10) 
0

>  <Mult>  (10) 
1

$$$$
mol_219 528
     RDKit          3D

 34 34  0  0  0  0  0  0  0  0999 V2000
   -0.6739   -0.2094    2.2636 C   0  0  0  0  0  0  0  0  0  0  0  0
   -0.6810    0.2650    0.8247 C   0  0  0  0  0  0  0  0  0  0  0  0
   -1.3962   -0.6794    0.0441 O   0  0  0  0  0  0  0  0  0  0  0  0
   -1.7261   -0.3614   -1.5174 P   0  0  0  0  0  5  0  0  0  0  0  0
   -2.8071   -1.7821   -2.3032 S   0  0  0  0  0  0  0  0  0  0  0  0
   -2.5248    1.0476   -1.3718 O   0  0  0  0  0  0  0  0  0  0  0  0
   -3.7916    1.0687   -0.7315 C   0  0  0  0  0  0  0  0  0  0  0  0
   -4.0841    2.4890   -0.2919 C   0  0  0  0  0  0  0  0  0  0  0  0
    0.0966    0.0949   -2.4602 S   0  0  0  0  0  0  0  0  0  0  0  0
    0.9044   -1.5195   -2.4962 C   0  0  0  0  0  0  0  0  0  0  0  0
    2.7169   -1.3623   -2.5394 S   0  0  0  0  0  0  0  0  0  0  0  0
    3.0240   -0.9144   -0.8412 C   0  0  0  0  0  0  0  0  0  0  0  0
    3.4619    0.3788   -0.5372 C   0  0  0  0  0  0  0  0  0  0  0  0
    3.6896    0.7519    0.7901 C   0  0  0  0  0  0  0  0  0  0  0  0
    3.4884   -0.1727    1.8127 C   0  0  0  0  0  0  0  0  0  0  0  0
    3.7500    0.2902    3.4480 Cl  0  0  0  0  0  0  0  0  0  0  0  0
    3.0709   -1.4694    1.5189 C   0  0  0  0  0  0  0  0  0  0  0  0
    2.8426   -1.8412    0.1913 C   0  0  0  0  0  0  0  0  0  0  0  0
   -1.6966   -0.2993    2.6442 H   0  0  0  0  0  0  0  0  0  0  0  0
   -0.1195    0.4853    2.9008 H   0  0  0  0  0  0  0  0  0  0  0  0
   -0.2168   -1.2014    2.3408 H   0  0  0  0  0  0  0  0  0  0  0  0
   -1.1546    1.2484    0.7607 H   0  0  0  0  0  0  0  0  0  0  0  0
    0.3453    0.3431    0.4606 H   0  0  0  0  0  0  0  0  0  0  0  0
   -3.7937    0.4027    0.1369 H   0  0  0  0  0  0  0  0  0  0  0  0
   -4.5564    0.7353   -1.4391 H   0  0  0  0  0  0  0  0  0  0  0  0
   -4.0750    3.1685   -1.1505 H   0  0  0  0  0  0  0  0  0  0  0  0
   -5.0594    2.5527    0.1986 H   0  0  0  0  0  0  0  0  0  0  0  0
   -3.3155    2.8435    0.4028 H   0  0  0  0  0  0  0  0  0  0  0  0
    0.5852   -2.0466   -3.3996 H   0  0  0  0  0  0  0  0  0  0  0  0
    0.6008   -2.1205   -1.6347 H   0  0  0  0  0  0  0  0  0  0  0  0
    3.6201    1.1071   -1.3301 H   0  0  0  0  0  0  0  0  0  0  0  0
    4.0232    1.7614    1.0157 H   0  0  0  0  0  0  0  0  0  0  0  0
    2.9242   -2.1948    2.3150 H   0  0  0  0  0  0  0  0  0  0  0  0
    2.5284   -2.8595   -0.0259 H   0  0  0  0  0  0  0  0  0  0  0  0
  1  2  1  0
  2  3  1  0
  3  4  1  0
  4  5  2  0
  4  6  1  0
  6  7  1  0
  7  8  1  0
  4  9  1  0
  9 10  1  0
 10 11  1  0
 11 12  1  0
 12 13  2  0
 13 14  1  0
 14 15  2  0
 15 16  1  0
 15 17  1  0
 17 18  2  0
 18 12  1  0
  1 19  1  0
  1 20  1  0
  1 21  1  0
  2 22  1  0
  2 23  1  0
  7 24  1  0
  7 25  1  0
  8 26  1  0
  8 27  1  0
  8 28  1  0
 10 29  1  0
 10 30  1  0
 13 31  1  0
 14 32  1  0
 17 33  1  0
 18 34  1  0
M  END
>  <Energy>  (11) 
-81.04396872299603

>  <Real charge>  (11) 
0

>  <Mult>  (11) 
1

$$$$
mol_219 296
     RDKit          3D

 34 34  0  0  0  0  0  0  0  0999 V2000
   -1.9065    2.9682    0.1716 C   0  0  0  0  0  0  0  0  0  0  0  0
   -2.5214    1.5840    0.1473 C   0  0  0  0  0  0  0  0  0  0  0  0
   -1.8915    0.8299   -0.8752 O   0  0  0  0  0  0  0  0  0  0  0  0
   -1.9388   -0.7951   -0.8201 P   0  0  0  0  0  5  0  0  0  0  0  0
   -1.5435   -1.5378   -2.5776 S   0  0  0  0  0  0  0  0  0  0  0  0
   -3.4874   -1.0110   -0.3742 O   0  0  0  0  0  0  0  0  0  0  0  0
   -3.9885   -2.3323   -0.2489 C   0  0  0  0  0  0  0  0  0  0  0  0
   -5.2034   -2.3011    0.6556 C   0  0  0  0  0  0  0  0  0  0  0  0
   -0.7245   -1.3609    0.7998 S   0  0  0  0  0  0  0  0  0  0  0  0
    0.8907   -0.7642    0.2576 C   0  0  0  0  0  0  0  0  0  0  0  0
    2.1191   -0.9789    1.5795 S   0  0  0  0  0  0  0  0  0  0  0  0
    3.5174   -0.1746    0.8217 C   0  0  0  0  0  0  0  0  0  0  0  0
    4.0957    0.9285    1.4592 C   0  0  0  0  0  0  0  0  0  0  0  0
    5.1974    1.5750    0.8919 C   0  0  0  0  0  0  0  0  0  0  0  0
    5.7275    1.1122   -0.3103 C   0  0  0  0  0  0  0  0  0  0  0  0
    7.0832    1.9066   -1.0095 Cl  0  0  0  0  0  0  0  0  0  0  0  0
    5.1687    0.0056   -0.9464 C   0  0  0  0  0  0  0  0  0  0  0  0
    4.0669   -0.6403   -0.3780 C   0  0  0  0  0  0  0  0  0  0  0  0
   -2.3736    3.5895    0.9408 H   0  0  0  0  0  0  0  0  0  0  0  0
   -2.0234    3.4601   -0.7996 H   0  0  0  0  0  0  0  0  0  0  0  0
   -0.8313    2.9077    0.3708 H   0  0  0  0  0  0  0  0  0  0  0  0
   -2.3926    1.1027    1.1209 H   0  0  0  0  0  0  0  0  0  0  0  0
   -3.5912    1.6525   -0.0727 H   0  0  0  0  0  0  0  0  0  0  0  0
   -3.2270   -2.9954    0.1721 H   0  0  0  0  0  0  0  0  0  0  0  0
   -4.2705   -2.7019   -1.2393 H   0  0  0  0  0  0  0  0  0  0  0  0
   -5.9710   -1.6347    0.2484 H   0  0  0  0  0  0  0  0  0  0  0  0
   -5.6296   -3.3014    0.7717 H   0  0  0  0  0  0  0  0  0  0  0  0
   -4.9370   -1.9132    1.6444 H   0  0  0  0  0  0  0  0  0  0  0  0
    1.1972   -1.3236   -0.6296 H   0  0  0  0  0  0  0  0  0  0  0  0
    0.8123    0.2963    0.0015 H   0  0  0  0  0  0  0  0  0  0  0  0
    3.6946    1.2941    2.4022 H   0  0  0  0  0  0  0  0  0  0  0  0
    5.6366    2.4329    1.3942 H   0  0  0  0  0  0  0  0  0  0  0  0
    5.5884   -0.3636   -1.8788 H   0  0  0  0  0  0  0  0  0  0  0  0
    3.6571   -1.5157   -0.8764 H   0  0  0  0  0  0  0  0  0  0  0  0
  1  2  1  0
  2  3  1  0
  3  4  1  0
  4  5  2  0
  4  6  1  0
  6  7  1  0
  7  8  1  0
  4  9  1  0
  9 10  1  0
 10 11  1  0
 11 12  1  0
 12 13  2  0
 13 14  1  0
 14 15  2  0
 15 16  1  0
 15 17  1  0
 17 18  2  0
 18 12  1  0
  1 19  1  0
  1 20  1  0
  1 21  1  0
  2 22  1  0
  2 23  1  0
  7 24  1  0
  7 25  1  0
  8 26  1  0
  8 27  1  0
  8 28  1  0
 10 29  1  0
 10 30  1  0
 13 31  1  0
 14 32  1  0
 17 33  1  0
 18 34  1  0
M  END
>  <Energy>  (12) 
-81.00806161087526

>  <Real charge>  (12) 
0

>  <Mult>  (12) 
1

$$$$
mol_219 535
     RDKit          3D

 34 34  0  0  0  0  0  0  0  0999 V2000
    5.0367   -1.9225    0.4910 C   0  0  0  0  0  0  0  0  0  0  0  0
    3.5495   -1.7525    0.7246 C   0  0  0  0  0  0  0  0  0  0  0  0
    2.8589   -2.1969   -0.4312 O   0  0  0  0  0  0  0  0  0  0  0  0
    1.3817   -1.6083   -0.7675 P   0  0  0  0  0  5  0  0  0  0  0  0
    0.6398   -2.4208   -2.3769 S   0  0  0  0  0  0  0  0  0  0  0  0
    1.7361   -0.0324   -0.9676 O   0  0  0  0  0  0  0  0  0  0  0  0
    2.5900    0.3589   -2.0328 C   0  0  0  0  0  0  0  0  0  0  0  0
    3.2321    1.6823   -1.6700 C   0  0  0  0  0  0  0  0  0  0  0  0
    0.2302   -1.7026    0.9886 S   0  0  0  0  0  0  0  0  0  0  0  0
   -1.2543   -0.8040    0.4957 C   0  0  0  0  0  0  0  0  0  0  0  0
   -2.3647   -0.5856    1.9178 S   0  0  0  0  0  0  0  0  0  0  0  0
   -3.6315    0.4076    1.1536 C   0  0  0  0  0  0  0  0  0  0  0  0
   -4.4034   -0.0846    0.0952 C   0  0  0  0  0  0  0  0  0  0  0  0
   -5.3961    0.7119   -0.4831 C   0  0  0  0  0  0  0  0  0  0  0  0
   -5.6233    1.9978    0.0030 C   0  0  0  0  0  0  0  0  0  0  0  0
   -6.8443    2.9779   -0.7087 Cl  0  0  0  0  0  0  0  0  0  0  0  0
   -4.8702    2.4919    1.0658 C   0  0  0  0  0  0  0  0  0  0  0  0
   -3.8779    1.6947    1.6432 C   0  0  0  0  0  0  0  0  0  0  0  0
    5.2767   -2.9685    0.2735 H   0  0  0  0  0  0  0  0  0  0  0  0
    5.6084   -1.6037    1.3670 H   0  0  0  0  0  0  0  0  0  0  0  0
    5.3596   -1.3347   -0.3747 H   0  0  0  0  0  0  0  0  0  0  0  0
    3.3250   -0.7022    0.9335 H   0  0  0  0  0  0  0  0  0  0  0  0
    3.2345   -2.3585    1.5793 H   0  0  0  0  0  0  0  0  0  0  0  0
    3.3649   -0.3939   -2.2068 H   0  0  0  0  0  0  0  0  0  0  0  0
    1.9933    0.4710   -2.9429 H   0  0  0  0  0  0  0  0  0  0  0  0
    3.8904    2.0295   -2.4712 H   0  0  0  0  0  0  0  0  0  0  0  0
    2.4681    2.4444   -1.4845 H   0  0  0  0  0  0  0  0  0  0  0  0
    3.8167    1.5863   -0.7490 H   0  0  0  0  0  0  0  0  0  0  0  0
   -1.7648   -1.3649   -0.2910 H   0  0  0  0  0  0  0  0  0  0  0  0
   -0.9663    0.1760    0.1047 H   0  0  0  0  0  0  0  0  0  0  0  0
   -4.2529   -1.0936   -0.2817 H   0  0  0  0  0  0  0  0  0  0  0  0
   -5.9906    0.3207   -1.3047 H   0  0  0  0  0  0  0  0  0  0  0  0
   -5.0512    3.4915    1.4522 H   0  0  0  0  0  0  0  0  0  0  0  0
   -3.3008    2.0878    2.4776 H   0  0  0  0  0  0  0  0  0  0  0  0
  1  2  1  0
  2  3  1  0
  3  4  1  0
  4  5  2  0
  4  6  1  0
  6  7  1  0
  7  8  1  0
  4  9  1  0
  9 10  1  0
 10 11  1  0
 11 12  1  0
 12 13  2  0
 13 14  1  0
 14 15  2  0
 15 16  1  0
 15 17  1  0
 17 18  2  0
 18 12  1  0
  1 19  1  0
  1 20  1  0
  1 21  1  0
  2 22  1  0
  2 23  1  0
  7 24  1  0
  7 25  1  0
  8 26  1  0
  8 27  1  0
  8 28  1  0
 10 29  1  0
 10 30  1  0
 13 31  1  0
 14 32  1  0
 17 33  1  0
 18 34  1  0
M  END
>  <Energy>  (13) 
-80.97019194628346

>  <Real charge>  (13) 
0

>  <Mult>  (13) 
1

$$$$
