mol_454 91
     RDKit          3D

 35 37  0  0  0  0  0  0  0  0999 V2000
   -2.0714   -2.1221    1.4406 C   0  0  0  0  0  0  0  0  0  0  0  0
   -0.7423   -1.3956    1.2606 C   0  0  0  0  0  0  0  0  0  0  0  0
   -0.5326   -1.0119   -0.1583 N   0  0  0  0  0  0  0  0  0  0  0  0
    0.8587   -0.9431   -0.4427 C   0  0  0  0  0  0  0  0  0  0  0  0
    1.3850   -2.0273   -1.1778 C   0  0  0  0  0  0  0  0  0  0  0  0
    2.7352   -2.0959   -1.5049 C   0  0  0  0  0  0  0  0  0  0  0  0
    3.5828   -1.0777   -1.0986 C   0  0  0  0  0  0  0  0  0  0  0  0
    3.0761    0.0014   -0.3673 C   0  0  0  0  0  0  0  0  0  0  0  0
    1.7094    0.1012   -0.0277 C   0  0  0  0  0  0  0  0  0  0  0  0
    1.2645    1.2101    0.7687 N   0  0  0  0  0  0  0  0  0  0  0  0
    2.2506    1.8601    1.6312 C   0  0  0  0  0  0  0  0  0  0  0  0
   -0.0064    1.8080    0.7519 C   0  0  0  0  0  0  0  0  0  0  0  0
   -0.2794    2.7592    1.4943 O   0  0  0  0  0  0  0  0  0  0  0  0
   -1.0788    1.4073   -0.1888 C   0  0  0  0  0  0  0  0  0  0  0  0
   -1.9284    2.4298   -0.6574 C   0  0  0  0  0  0  0  0  0  0  0  0
   -3.0047    2.1435   -1.4973 C   0  0  0  0  0  0  0  0  0  0  0  0
   -3.2508    0.8293   -1.8726 C   0  0  0  0  0  0  0  0  0  0  0  0
   -2.4210   -0.1893   -1.4034 C   0  0  0  0  0  0  0  0  0  0  0  0
   -1.3337    0.0829   -0.5499 C   0  0  0  0  0  0  0  0  0  0  0  0
   -2.1506   -2.9718    0.7545 H   0  0  0  0  0  0  0  0  0  0  0  0
   -2.9221   -1.4580    1.2593 H   0  0  0  0  0  0  0  0  0  0  0  0
   -2.1580   -2.4998    2.4644 H   0  0  0  0  0  0  0  0  0  0  0  0
    0.0435   -2.0933    1.5826 H   0  0  0  0  0  0  0  0  0  0  0  0
   -0.6972   -0.5373    1.9416 H   0  0  0  0  0  0  0  0  0  0  0  0
    0.7180   -2.8249   -1.4985 H   0  0  0  0  0  0  0  0  0  0  0  0
    3.1175   -2.9373   -2.0757 H   0  0  0  0  0  0  0  0  0  0  0  0
    4.6393   -1.1135   -1.3521 H   0  0  0  0  0  0  0  0  0  0  0  0
    3.7803    0.7830   -0.0951 H   0  0  0  0  0  0  0  0  0  0  0  0
    2.8095    2.5944    1.0424 H   0  0  0  0  0  0  0  0  0  0  0  0
    1.7742    2.3838    2.4657 H   0  0  0  0  0  0  0  0  0  0  0  0
    2.9277    1.1198    2.0698 H   0  0  0  0  0  0  0  0  0  0  0  0
   -1.7509    3.4620   -0.3592 H   0  0  0  0  0  0  0  0  0  0  0  0
   -3.6472    2.9452   -1.8515 H   0  0  0  0  0  0  0  0  0  0  0  0
   -4.0836    0.5935   -2.5297 H   0  0  0  0  0  0  0  0  0  0  0  0
   -2.6132   -1.2156   -1.7094 H   0  0  0  0  0  0  0  0  0  0  0  0
  1  2  1  0
  2  3  1  0
  3  4  1  0
  4  5  2  0
  5  6  1  0
  6  7  2  0
  7  8  1  0
  8  9  2  0
  9 10  1  0
 10 11  1  0
 10 12  1  0
 12 13  2  0
 12 14  1  0
 14 15  2  0
 15 16  1  0
 16 17  2  0
 17 18  1  0
 18 19  2  0
  9  4  1  0
 19  3  1  0
 19 14  1  0
  1 20  1  0
  1 21  1  0
  1 22  1  0
  2 23  1  0
  2 24  1  0
  5 25  1  0
  6 26  1  0
  7 27  1  0
  8 28  1  0
 11 29  1  0
 11 30  1  0
 11 31  1  0
 15 32  1  0
 16 33  1  0
 17 34  1  0
 18 35  1  0
M  END
>  <Energy>  (1) 
90.27086350223459

>  <Real charge>  (1) 
0

>  <Mult>  (1) 
1

$$$$
mol_454 71
     RDKit          3D

 35 37  0  0  0  0  0  0  0  0999 V2000
   -0.8183   -2.5547    1.8237 C   0  0  0  0  0  0  0  0  0  0  0  0
   -0.9560   -1.0806    1.4573 C   0  0  0  0  0  0  0  0  0  0  0  0
   -0.7786   -0.8755   -0.0027 N   0  0  0  0  0  0  0  0  0  0  0  0
    0.5841   -0.9571   -0.3926 C   0  0  0  0  0  0  0  0  0  0  0  0
    0.9537   -2.1290   -1.0881 C   0  0  0  0  0  0  0  0  0  0  0  0
    2.2609   -2.3429   -1.5127 C   0  0  0  0  0  0  0  0  0  0  0  0
    3.2234   -1.3813   -1.2511 C   0  0  0  0  0  0  0  0  0  0  0  0
    2.8723   -0.2112   -0.5707 C   0  0  0  0  0  0  0  0  0  0  0  0
    1.5517    0.0360   -0.1368 C   0  0  0  0  0  0  0  0  0  0  0  0
    1.2675    1.2443    0.5853 N   0  0  0  0  0  0  0  0  0  0  0  0
    2.3705    1.8716    1.3123 C   0  0  0  0  0  0  0  0  0  0  0  0
    0.0529    1.9493    0.6079 C   0  0  0  0  0  0  0  0  0  0  0  0
   -0.0814    2.9775    1.2826 O   0  0  0  0  0  0  0  0  0  0  0  0
   -1.1192    1.5725   -0.2166 C   0  0  0  0  0  0  0  0  0  0  0  0
   -1.9181    2.6241   -0.7082 C   0  0  0  0  0  0  0  0  0  0  0  0
   -3.0853    2.3657   -1.4276 C   0  0  0  0  0  0  0  0  0  0  0  0
   -3.4758    1.0519   -1.6541 C   0  0  0  0  0  0  0  0  0  0  0  0
   -2.6966    0.0053   -1.1608 C   0  0  0  0  0  0  0  0  0  0  0  0
   -1.5143    0.2516   -0.4367 C   0  0  0  0  0  0  0  0  0  0  0  0
    0.2038   -2.9148    1.6718 H   0  0  0  0  0  0  0  0  0  0  0  0
   -1.4906   -3.1740    1.2207 H   0  0  0  0  0  0  0  0  0  0  0  0
   -1.0690   -2.7050    2.8787 H   0  0  0  0  0  0  0  0  0  0  0  0
   -0.2562   -0.4858    2.0567 H   0  0  0  0  0  0  0  0  0  0  0  0
   -1.9671   -0.7743    1.7602 H   0  0  0  0  0  0  0  0  0  0  0  0
    0.1970   -2.8827   -1.2965 H   0  0  0  0  0  0  0  0  0  0  0  0
    2.5205   -3.2527   -2.0465 H   0  0  0  0  0  0  0  0  0  0  0  0
    4.2481   -1.5307   -1.5818 H   0  0  0  0  0  0  0  0  0  0  0  0
    3.6596    0.5222   -0.4185 H   0  0  0  0  0  0  0  0  0  0  0  0
    2.9401    2.5008    0.6211 H   0  0  0  0  0  0  0  0  0  0  0  0
    2.0079    2.5039    2.1286 H   0  0  0  0  0  0  0  0  0  0  0  0
    3.0159    1.1118    1.7652 H   0  0  0  0  0  0  0  0  0  0  0  0
   -1.6305    3.6575   -0.5205 H   0  0  0  0  0  0  0  0  0  0  0  0
   -3.6877    3.1895   -1.8015 H   0  0  0  0  0  0  0  0  0  0  0  0
   -4.3828    0.8385   -2.2133 H   0  0  0  0  0  0  0  0  0  0  0  0
   -3.0025   -1.0218   -1.3482 H   0  0  0  0  0  0  0  0  0  0  0  0
  1  2  1  0
  2  3  1  0
  3  4  1  0
  4  5  2  0
  5  6  1  0
  6  7  2  0
  7  8  1  0
  8  9  2  0
  9 10  1  0
 10 11  1  0
 10 12  1  0
 12 13  2  0
 12 14  1  0
 14 15  2  0
 15 16  1  0
 16 17  2  0
 17 18  1  0
 18 19  2  0
  9  4  1  0
 19  3  1  0
 19 14  1  0
  1 20  1  0
  1 21  1  0
  1 22  1  0
  2 23  1  0
  2 24  1  0
  5 25  1  0
  6 26  1  0
  7 27  1  0
  8 28  1  0
 11 29  1  0
 11 30  1  0
 11 31  1  0
 15 32  1  0
 16 33  1  0
 17 34  1  0
 18 35  1  0
M  END
>  <Energy>  (2) 
90.3108215879226

>  <Real charge>  (2) 
0

>  <Mult>  (2) 
1

$$$$
mol_454 147
     RDKit          3D

 35 37  0  0  0  0  0  0  0  0999 V2000
   -2.3483   -1.0830    2.1240 C   0  0  0  0  0  0  0  0  0  0  0  0
   -1.4770   -1.6938    1.0301 C   0  0  0  0  0  0  0  0  0  0  0  0
   -0.6365   -0.6747    0.3760 N   0  0  0  0  0  0  0  0  0  0  0  0
    0.6432   -1.0915   -0.0658 C   0  0  0  0  0  0  0  0  0  0  0  0
    0.8345   -2.3979   -0.5701 C   0  0  0  0  0  0  0  0  0  0  0  0
    2.0816   -2.8439   -1.0051 C   0  0  0  0  0  0  0  0  0  0  0  0
    3.1700   -1.9896   -0.9484 C   0  0  0  0  0  0  0  0  0  0  0  0
    3.0055   -0.6924   -0.4609 C   0  0  0  0  0  0  0  0  0  0  0  0
    1.7512   -0.2135   -0.0246 C   0  0  0  0  0  0  0  0  0  0  0  0
    1.6657    1.1109    0.5211 N   0  0  0  0  0  0  0  0  0  0  0  0
    2.8602    1.6641    1.1532 C   0  0  0  0  0  0  0  0  0  0  0  0
    0.5633    1.9753    0.4436 C   0  0  0  0  0  0  0  0  0  0  0  0
    0.5866    3.1032    0.9513 O   0  0  0  0  0  0  0  0  0  0  0  0
   -0.6499    1.6495   -0.3436 C   0  0  0  0  0  0  0  0  0  0  0  0
   -1.2551    2.7110   -1.0454 C   0  0  0  0  0  0  0  0  0  0  0  0
   -2.4502    2.5218   -1.7339 C   0  0  0  0  0  0  0  0  0  0  0  0
   -3.0558    1.2731   -1.7158 C   0  0  0  0  0  0  0  0  0  0  0  0
   -2.4650    0.2208   -1.0093 C   0  0  0  0  0  0  0  0  0  0  0  0
   -1.2558    0.3879   -0.3051 C   0  0  0  0  0  0  0  0  0  0  0  0
   -3.0961   -0.3948    1.7193 H   0  0  0  0  0  0  0  0  0  0  0  0
   -2.8822   -1.8724    2.6629 H   0  0  0  0  0  0  0  0  0  0  0  0
   -1.7379   -0.5302    2.8461 H   0  0  0  0  0  0  0  0  0  0  0  0
   -2.0906   -2.2444    0.3078 H   0  0  0  0  0  0  0  0  0  0  0  0
   -0.8430   -2.4364    1.5334 H   0  0  0  0  0  0  0  0  0  0  0  0
   -0.0041   -3.0841   -0.6529 H   0  0  0  0  0  0  0  0  0  0  0  0
    2.1958   -3.8525   -1.3930 H   0  0  0  0  0  0  0  0  0  0  0  0
    4.1467   -2.3233   -1.2889 H   0  0  0  0  0  0  0  0  0  0  0  0
    3.8811   -0.0488   -0.4570 H   0  0  0  0  0  0  0  0  0  0  0  0
    3.4895    2.1232    0.3842 H   0  0  0  0  0  0  0  0  0  0  0  0
    2.6041    2.4329    1.8888 H   0  0  0  0  0  0  0  0  0  0  0  0
    3.4125    0.8841    1.6875 H   0  0  0  0  0  0  0  0  0  0  0  0
   -0.7923    3.6964   -1.0415 H   0  0  0  0  0  0  0  0  0  0  0  0
   -2.9061    3.3478   -2.2730 H   0  0  0  0  0  0  0  0  0  0  0  0
   -3.9870    1.1115   -2.2527 H   0  0  0  0  0  0  0  0  0  0  0  0
   -2.9586   -0.7459   -1.0421 H   0  0  0  0  0  0  0  0  0  0  0  0
  1  2  1  0
  2  3  1  0
  3  4  1  0
  4  5  2  0
  5  6  1  0
  6  7  2  0
  7  8  1  0
  8  9  2  0
  9 10  1  0
 10 11  1  0
 10 12  1  0
 12 13  2  0
 12 14  1  0
 14 15  2  0
 15 16  1  0
 16 17  2  0
 17 18  1  0
 18 19  2  0
  9  4  1  0
 19  3  1  0
 19 14  1  0
  1 20  1  0
  1 21  1  0
  1 22  1  0
  2 23  1  0
  2 24  1  0
  5 25  1  0
  6 26  1  0
  7 27  1  0
  8 28  1  0
 11 29  1  0
 11 30  1  0
 11 31  1  0
 15 32  1  0
 16 33  1  0
 17 34  1  0
 18 35  1  0
M  END
>  <Energy>  (3) 
90.48284817980887

>  <Real charge>  (3) 
0

>  <Mult>  (3) 
1

$$$$
mol_454 56
     RDKit          3D

 35 37  0  0  0  0  0  0  0  0999 V2000
    0.4254    2.7437   -1.7348 C   0  0  0  0  0  0  0  0  0  0  0  0
   -0.5616    2.3346   -0.6455 C   0  0  0  0  0  0  0  0  0  0  0  0
   -0.3601    0.9348   -0.2299 N   0  0  0  0  0  0  0  0  0  0  0  0
    0.8758    0.5519    0.3380 C   0  0  0  0  0  0  0  0  0  0  0  0
    1.6020    1.4470    1.1546 C   0  0  0  0  0  0  0  0  0  0  0  0
    2.8288    1.1007    1.7203 C   0  0  0  0  0  0  0  0  0  0  0  0
    3.3597   -0.1559    1.4847 C   0  0  0  0  0  0  0  0  0  0  0  0
    2.6597   -1.0616    0.6873 C   0  0  0  0  0  0  0  0  0  0  0  0
    1.4116   -0.7384    0.1118 C   0  0  0  0  0  0  0  0  0  0  0  0
    0.7771   -1.6978   -0.7469 N   0  0  0  0  0  0  0  0  0  0  0  0
    1.6331   -2.6372   -1.4661 C   0  0  0  0  0  0  0  0  0  0  0  0
   -0.6034   -1.8871   -0.9101 C   0  0  0  0  0  0  0  0  0  0  0  0
   -1.0539   -2.7500   -1.6735 O   0  0  0  0  0  0  0  0  0  0  0  0
   -1.6084   -1.1544   -0.1040 C   0  0  0  0  0  0  0  0  0  0  0  0
   -2.7509   -1.8742    0.2982 C   0  0  0  0  0  0  0  0  0  0  0  0
   -3.7909   -1.2425    0.9756 C   0  0  0  0  0  0  0  0  0  0  0  0
   -3.7029    0.1164    1.2457 C   0  0  0  0  0  0  0  0  0  0  0  0
   -2.5773    0.8370    0.8362 C   0  0  0  0  0  0  0  0  0  0  0  0
   -1.5128    0.2184    0.1490 C   0  0  0  0  0  0  0  0  0  0  0  0
    0.1863    3.7477   -2.0999 H   0  0  0  0  0  0  0  0  0  0  0  0
    0.3788    2.0526   -2.5832 H   0  0  0  0  0  0  0  0  0  0  0  0
    1.4571    2.7609   -1.3718 H   0  0  0  0  0  0  0  0  0  0  0  0
   -1.5603    2.4531   -1.0877 H   0  0  0  0  0  0  0  0  0  0  0  0
   -0.5147    3.0267    0.2031 H   0  0  0  0  0  0  0  0  0  0  0  0
    1.2079    2.4328    1.3820 H   0  0  0  0  0  0  0  0  0  0  0  0
    3.3599    1.8113    2.3478 H   0  0  0  0  0  0  0  0  0  0  0  0
    4.3124   -0.4397    1.9239 H   0  0  0  0  0  0  0  0  0  0  0  0
    3.1010   -2.0448    0.5482 H   0  0  0  0  0  0  0  0  0  0  0  0
    2.5666   -2.1543   -1.7732 H   0  0  0  0  0  0  0  0  0  0  0  0
    1.1488   -3.0013   -2.3776 H   0  0  0  0  0  0  0  0  0  0  0  0
    1.8384   -3.4974   -0.8211 H   0  0  0  0  0  0  0  0  0  0  0  0
   -2.8314   -2.9351    0.0677 H   0  0  0  0  0  0  0  0  0  0  0  0
   -4.6656   -1.8096    1.2824 H   0  0  0  0  0  0  0  0  0  0  0  0
   -4.5060    0.6192    1.7784 H   0  0  0  0  0  0  0  0  0  0  0  0
   -2.5301    1.8926    1.0902 H   0  0  0  0  0  0  0  0  0  0  0  0
  1  2  1  0
  2  3  1  0
  3  4  1  0
  4  5  2  0
  5  6  1  0
  6  7  2  0
  7  8  1  0
  8  9  2  0
  9 10  1  0
 10 11  1  0
 10 12  1  0
 12 13  2  0
 12 14  1  0
 14 15  2  0
 15 16  1  0
 16 17  2  0
 17 18  1  0
 18 19  2  0
  9  4  1  0
 19  3  1  0
 19 14  1  0
  1 20  1  0
  1 21  1  0
  1 22  1  0
  2 23  1  0
  2 24  1  0
  5 25  1  0
  6 26  1  0
  7 27  1  0
  8 28  1  0
 11 29  1  0
 11 30  1  0
 11 31  1  0
 15 32  1  0
 16 33  1  0
 17 34  1  0
 18 35  1  0
M  END
>  <Energy>  (4) 
90.5538186901165

>  <Real charge>  (4) 
0

>  <Mult>  (4) 
1

$$$$
