mol_624 86
     RDKit          3D

 32 35  0  0  0  0  0  0  0  0999 V2000
   -1.8151    3.1727   -0.3834 N   0  0  0  0  0  0  0  0  0  0  0  0
   -1.3794    1.8361   -0.2259 C   0  0  0  0  0  0  0  0  0  0  0  0
    0.0008    1.5990   -0.2617 C   0  0  0  0  0  0  0  0  0  0  0  0
    0.5758    0.3149   -0.1720 C   0  0  0  0  0  0  0  0  0  0  0  0
    2.0095    0.1085   -0.1593 C   0  0  0  0  0  0  0  0  0  0  0  0
    2.9797    1.1438   -0.2481 C   0  0  0  0  0  0  0  0  0  0  0  0
    4.3560    0.8924   -0.2284 C   0  0  0  0  0  0  0  0  0  0  0  0
    4.8183   -0.4084   -0.1182 C   0  0  0  0  0  0  0  0  0  0  0  0
    3.9029   -1.4518   -0.0290 C   0  0  0  0  0  0  0  0  0  0  0  0
    2.5183   -1.2065   -0.0489 C   0  0  0  0  0  0  0  0  0  0  0  0
    1.6369   -2.2769    0.0425 C   0  0  0  0  0  0  0  0  0  0  0  0
    0.2585   -2.0688    0.0202 C   0  0  0  0  0  0  0  0  0  0  0  0
   -0.3200   -0.7851   -0.0908 C   0  0  0  0  0  0  0  0  0  0  0  0
   -1.7502   -0.5759   -0.1389 C   0  0  0  0  0  0  0  0  0  0  0  0
   -2.6976   -1.6370   -0.1099 C   0  0  0  0  0  0  0  0  0  0  0  0
   -4.0764   -1.4293   -0.1895 C   0  0  0  0  0  0  0  0  0  0  0  0
   -4.5661   -0.1440   -0.3091 C   0  0  0  0  0  0  0  0  0  0  0  0
   -3.6737    0.9247   -0.3333 C   0  0  0  0  0  0  0  0  0  0  0  0
   -2.2708    0.7429   -0.2348 C   0  0  0  0  0  0  0  0  0  0  0  0
   -2.7132    3.3524    0.0520 H   0  0  0  0  0  0  0  0  0  0  0  0
   -1.1259    3.8570   -0.0877 H   0  0  0  0  0  0  0  0  0  0  0  0
    0.6413    2.4712   -0.3474 H   0  0  0  0  0  0  0  0  0  0  0  0
    2.6803    2.1836   -0.3388 H   0  0  0  0  0  0  0  0  0  0  0  0
    5.0593    1.7179   -0.3005 H   0  0  0  0  0  0  0  0  0  0  0  0
    5.8850   -0.6130   -0.1025 H   0  0  0  0  0  0  0  0  0  0  0  0
    4.2808   -2.4687    0.0563 H   0  0  0  0  0  0  0  0  0  0  0  0
    2.0077   -3.2962    0.1292 H   0  0  0  0  0  0  0  0  0  0  0  0
   -0.3577   -2.9599    0.0927 H   0  0  0  0  0  0  0  0  0  0  0  0
   -2.3767   -2.6717   -0.0340 H   0  0  0  0  0  0  0  0  0  0  0  0
   -4.7569   -2.2761   -0.1693 H   0  0  0  0  0  0  0  0  0  0  0  0
   -5.6348    0.0335   -0.3882 H   0  0  0  0  0  0  0  0  0  0  0  0
   -4.0967    1.9189   -0.4483 H   0  0  0  0  0  0  0  0  0  0  0  0
  1  2  1  0
  2  3  2  0
  3  4  1  0
  4  5  2  0
  5  6  1  0
  6  7  2  0
  7  8  1  0
  8  9  2  0
  9 10  1  0
 10 11  2  0
 11 12  1  0
 12 13  2  0
 13 14  1  0
 14 15  2  0
 15 16  1  0
 16 17  2  0
 17 18  1  0
 18 19  2  0
 10  5  1  0
 13  4  1  0
 19  2  1  0
 19 14  1  0
  1 20  1  0
  1 21  1  0
  3 22  1  0
  6 23  1  0
  7 24  1  0
  8 25  1  0
  9 26  1  0
 11 27  1  0
 12 28  1  0
 15 29  1  0
 16 30  1  0
 17 31  1  0
 18 32  1  0
M  END
>  <Energy>  (1) 
79.79560967418264

>  <Real charge>  (1) 
0

>  <Mult>  (1) 
1

$$$$
