mol_874 438
     RDKit          3D

 24 23  0  0  0  0  0  0  0  0999 V2000
    1.6172   -1.3194   -0.5610 C   0  0  0  0  0  0  0  0  0  0  0  0
    1.3075   -0.1536    0.3775 C   0  0  0  0  0  0  0  0  0  0  0  0
    2.5461    0.7424    0.4988 C   0  0  0  0  0  0  0  0  0  0  0  0
    0.1016    0.7008   -0.0763 C   0  0  0  0  0  0  0  0  0  0  0  0
   -1.2723   -0.0010   -0.1794 C   0  0  0  0  0  0  0  0  0  0  0  0
   -1.6427   -0.7632    1.0930 C   0  0  0  0  0  0  0  0  0  0  0  0
   -2.3571    1.0392   -0.4876 C   0  0  0  0  0  0  0  0  0  0  0  0
   -1.2674   -0.9359   -1.2584 O   0  0  0  0  0  0  0  0  0  0  0  0
    1.7236   -0.9794   -1.5965 H   0  0  0  0  0  0  0  0  0  0  0  0
    2.5510   -1.8142   -0.2719 H   0  0  0  0  0  0  0  0  0  0  0  0
    0.8327   -2.0802   -0.5251 H   0  0  0  0  0  0  0  0  0  0  0  0
    1.1052   -0.5588    1.3760 H   0  0  0  0  0  0  0  0  0  0  0  0
    3.4049    0.1722    0.8689 H   0  0  0  0  0  0  0  0  0  0  0  0
    2.8191    1.1766   -0.4691 H   0  0  0  0  0  0  0  0  0  0  0  0
    2.3662    1.5633    1.2012 H   0  0  0  0  0  0  0  0  0  0  0  0
    0.3451    1.1386   -1.0544 H   0  0  0  0  0  0  0  0  0  0  0  0
    0.0053    1.5412    0.6249 H   0  0  0  0  0  0  0  0  0  0  0  0
   -2.6489   -1.1907    1.0101 H   0  0  0  0  0  0  0  0  0  0  0  0
   -0.9724   -1.6124    1.2620 H   0  0  0  0  0  0  0  0  0  0  0  0
   -1.6172   -0.1132    1.9735 H   0  0  0  0  0  0  0  0  0  0  0  0
   -2.1328    1.5740   -1.4177 H   0  0  0  0  0  0  0  0  0  0  0  0
   -3.3301    0.5570   -0.6365 H   0  0  0  0  0  0  0  0  0  0  0  0
   -2.4535    1.7735    0.3189 H   0  0  0  0  0  0  0  0  0  0  0  0
   -1.0311   -0.4567   -2.0709 H   0  0  0  0  0  0  0  0  0  0  0  0
  1  2  1  0
  2  3  1  0
  2  4  1  0
  4  5  1  0
  5  6  1  0
  5  7  1  0
  5  8  1  0
  1  9  1  0
  1 10  1  0
  1 11  1  0
  2 12  1  0
  3 13  1  0
  3 14  1  0
  3 15  1  0
  4 16  1  0
  4 17  1  0
  6 18  1  0
  6 19  1  0
  6 20  1  0
  7 21  1  0
  7 22  1  0
  7 23  1  0
  8 24  1  0
M  END
>  <Energy>  (1) 
15.194470601393482

>  <Real charge>  (1) 
0

>  <Mult>  (1) 
1

$$$$
mol_874 404
     RDKit          3D

 24 23  0  0  0  0  0  0  0  0999 V2000
    1.7504   -1.2899    0.1518 C   0  0  0  0  0  0  0  0  0  0  0  0
    1.3026    0.0133   -0.5092 C   0  0  0  0  0  0  0  0  0  0  0  0
    2.4950    0.9739   -0.5949 C   0  0  0  0  0  0  0  0  0  0  0  0
    0.1362    0.7112    0.2278 C   0  0  0  0  0  0  0  0  0  0  0  0
   -1.1968   -0.0613    0.3477 C   0  0  0  0  0  0  0  0  0  0  0  0
   -2.2627    0.8608    0.9540 C   0  0  0  0  0  0  0  0  0  0  0  0
   -1.6868   -0.6068   -0.9948 C   0  0  0  0  0  0  0  0  0  0  0  0
   -1.0219   -1.1530    1.2515 O   0  0  0  0  0  0  0  0  0  0  0  0
    0.9857   -2.0665    0.0627 H   0  0  0  0  0  0  0  0  0  0  0  0
    1.9722   -1.1418    1.2139 H   0  0  0  0  0  0  0  0  0  0  0  0
    2.6543   -1.6796   -0.3293 H   0  0  0  0  0  0  0  0  0  0  0  0
    0.9952   -0.2095   -1.5378 H   0  0  0  0  0  0  0  0  0  0  0  0
    2.2130    1.9008   -1.1056 H   0  0  0  0  0  0  0  0  0  0  0  0
    2.8680    1.2345    0.4015 H   0  0  0  0  0  0  0  0  0  0  0  0
    3.3190    0.5231   -1.1582 H   0  0  0  0  0  0  0  0  0  0  0  0
   -0.0619    1.6612   -0.2873 H   0  0  0  0  0  0  0  0  0  0  0  0
    0.4806    0.9701    1.2389 H   0  0  0  0  0  0  0  0  0  0  0  0
   -3.2057    0.3234    1.1075 H   0  0  0  0  0  0  0  0  0  0  0  0
   -2.4598    1.7266    0.3133 H   0  0  0  0  0  0  0  0  0  0  0  0
   -1.9497    1.2216    1.9405 H   0  0  0  0  0  0  0  0  0  0  0  0
   -1.0205   -1.3864   -1.3783 H   0  0  0  0  0  0  0  0  0  0  0  0
   -2.6691   -1.0815   -0.8863 H   0  0  0  0  0  0  0  0  0  0  0  0
   -1.7711    0.1866   -1.7443 H   0  0  0  0  0  0  0  0  0  0  0  0
   -1.8663   -1.6311    1.3149 H   0  0  0  0  0  0  0  0  0  0  0  0
  1  2  1  0
  2  3  1  0
  2  4  1  0
  4  5  1  0
  5  6  1  0
  5  7  1  0
  5  8  1  0
  1  9  1  0
  1 10  1  0
  1 11  1  0
  2 12  1  0
  3 13  1  0
  3 14  1  0
  3 15  1  0
  4 16  1  0
  4 17  1  0
  6 18  1  0
  6 19  1  0
  6 20  1  0
  7 21  1  0
  7 22  1  0
  7 23  1  0
  8 24  1  0
M  END
>  <Energy>  (2) 
15.290921449452194

>  <Real charge>  (2) 
0

>  <Mult>  (2) 
1

$$$$
