mol_906 36
     RDKit          3D

 29 29  0  0  0  0  0  0  0  0999 V2000
   -1.9757    0.9275    2.8917 C   0  0  0  0  0  0  0  0  0  0  0  0
   -1.3962    1.7754    1.7569 C   0  0  0  0  0  0  0  0  0  0  0  0
   -2.2646    2.9400    1.4796 C   0  0  0  0  0  0  0  0  0  0  0  0
   -2.9646    3.8915    1.2596 C   0  0  0  0  0  0  0  0  0  0  0  0
   -1.1605    0.9684    0.5493 N   0  0  0  0  0  0  0  0  0  0  0  0
   -2.2989    0.6829   -0.3218 C   0  0  0  0  0  0  0  0  0  0  0  0
    0.0782    0.3324    0.4448 C   0  0  0  0  0  0  0  0  0  0  0  0
    0.8733    0.3184    1.3807 O   0  0  0  0  0  0  0  0  0  0  0  0
    0.3177   -0.2284   -0.7912 N   0  0  0  0  0  0  0  0  0  0  0  0
    1.3973   -1.0546   -1.1629 C   0  0  0  0  0  0  0  0  0  0  0  0
    1.5712   -1.3087   -2.5303 C   0  0  0  0  0  0  0  0  0  0  0  0
    2.6112   -2.1304   -2.9760 C   0  0  0  0  0  0  0  0  0  0  0  0
    3.4790   -2.7079   -2.0536 C   0  0  0  0  0  0  0  0  0  0  0  0
    4.7580   -3.7202   -2.5989 Cl  0  0  0  0  0  0  0  0  0  0  0  0
    3.3117   -2.4724   -0.6922 C   0  0  0  0  0  0  0  0  0  0  0  0
    2.2700   -1.6497   -0.2482 C   0  0  0  0  0  0  0  0  0  0  0  0
   -2.9618    0.5246    2.6347 H   0  0  0  0  0  0  0  0  0  0  0  0
   -1.3232    0.0790    3.1232 H   0  0  0  0  0  0  0  0  0  0  0  0
   -2.0917    1.5232    3.8042 H   0  0  0  0  0  0  0  0  0  0  0  0
   -0.4305    2.1676    2.1008 H   0  0  0  0  0  0  0  0  0  0  0  0
   -3.5813    4.7392    1.0676 H   0  0  0  0  0  0  0  0  0  0  0  0
   -2.4357    1.5251   -1.0058 H   0  0  0  0  0  0  0  0  0  0  0  0
   -3.2034    0.5434    0.2771 H   0  0  0  0  0  0  0  0  0  0  0  0
   -2.1490   -0.2308   -0.9023 H   0  0  0  0  0  0  0  0  0  0  0  0
   -0.2158    0.1701   -1.5478 H   0  0  0  0  0  0  0  0  0  0  0  0
    0.9046   -0.8691   -3.2676 H   0  0  0  0  0  0  0  0  0  0  0  0
    2.7367   -2.3143   -4.0395 H   0  0  0  0  0  0  0  0  0  0  0  0
    3.9828   -2.9237    0.0337 H   0  0  0  0  0  0  0  0  0  0  0  0
    2.1614   -1.4986    0.8219 H   0  0  0  0  0  0  0  0  0  0  0  0
  1  2  1  0
  2  3  1  0
  3  4  3  0
  2  5  1  0
  5  6  1  0
  5  7  1  0
  7  8  2  0
  7  9  1  0
  9 10  1  0
 10 11  2  0
 11 12  1  0
 12 13  2  0
 13 14  1  0
 13 15  1  0
 15 16  2  0
 16 10  1  0
  1 17  1  0
  1 18  1  0
  1 19  1  0
  2 20  1  0
  4 21  1  0
  6 22  1  0
  6 23  1  0
  6 24  1  0
  9 25  1  0
 11 26  1  0
 12 27  1  0
 15 28  1  0
 16 29  1  0
M  END
>  <Energy>  (1) 
-52.44350712710433

>  <Real charge>  (1) 
0

>  <Mult>  (1) 
1

$$$$
