mol_341 633
     RDKit          3D

 54 57  0  0  0  0  0  0  0  0999 V2000
   -2.3301   -1.5055   -1.2189 C   0  0  0  0  0  0  0  0  0  0  0  0
   -2.0296   -0.3627   -0.2293 C   0  0  0  0  0  0  0  0  0  0  0  0
   -1.3798    0.8114   -0.9866 C   0  0  0  0  0  0  0  0  0  0  0  0
    0.0358    0.4844   -1.4152 C   0  0  0  0  0  0  0  0  0  0  0  0
    0.3700    0.6297   -2.5878 O   0  0  0  0  0  0  0  0  0  0  0  0
    0.9960    0.0738   -0.2960 C   0  0  0  0  0  0  0  0  0  0  0  0
    0.3641   -1.1035    0.4837 C   0  0  0  0  0  0  0  0  0  0  0  0
    1.2365   -1.4730    1.6933 C   0  0  0  0  0  0  0  0  0  0  0  0
    2.6572   -1.8200    1.2704 C   0  0  0  0  0  0  0  0  0  0  0  0
    3.2838   -0.7101    0.4593 C   0  0  0  0  0  0  0  0  0  0  0  0
    4.5014   -0.2480    0.7959 C   0  0  0  0  0  0  0  0  0  0  0  0
    5.2186    0.7427   -0.0392 C   0  0  0  0  0  0  0  0  0  0  0  0
    6.3072    1.1716    0.3344 O   0  0  0  0  0  0  0  0  0  0  0  0
    4.6105    1.1207   -1.3630 C   0  0  0  0  0  0  0  0  0  0  0  0
    3.0921    1.1405   -1.2584 C   0  0  0  0  0  0  0  0  0  0  0  0
    2.4786   -0.1992   -0.7491 C   0  0  0  0  0  0  0  0  0  0  0  0
    2.5858   -1.2734   -1.8566 C   0  0  0  0  0  0  0  0  0  0  0  0
   -1.0994   -0.8495    0.9128 C   0  0  0  0  0  0  0  0  0  0  0  0
   -1.3044    0.1916    2.0266 C   0  0  0  0  0  0  0  0  0  0  0  0
   -2.7112    0.7755    1.8245 C   0  0  0  0  0  0  0  0  0  0  0  0
   -3.2851    0.0780    0.5843 C   0  0  0  0  0  0  0  0  0  0  0  0
   -3.9726   -1.0911    1.0710 O   0  0  0  0  0  0  0  0  0  0  0  0
   -4.3292    0.8685   -0.2246 C   0  0  0  0  0  0  0  0  0  0  0  0
   -5.1594    0.2654   -0.9190 O   0  0  0  0  0  0  0  0  0  0  0  0
   -4.3580    2.3877   -0.1457 C   0  0  0  0  0  0  0  0  0  0  0  0
   -5.1951    2.9454   -1.1480 O   0  0  0  0  0  0  0  0  0  0  0  0
   -3.0753   -1.1978   -1.9599 H   0  0  0  0  0  0  0  0  0  0  0  0
   -1.4343   -1.8137   -1.7683 H   0  0  0  0  0  0  0  0  0  0  0  0
   -2.7122   -2.3970   -0.7107 H   0  0  0  0  0  0  0  0  0  0  0  0
   -1.9657    1.0667   -1.8776 H   0  0  0  0  0  0  0  0  0  0  0  0
   -1.3143    1.7182   -0.3760 H   0  0  0  0  0  0  0  0  0  0  0  0
    1.0281    0.9419    0.3790 H   0  0  0  0  0  0  0  0  0  0  0  0
    0.3371   -1.9765   -0.1818 H   0  0  0  0  0  0  0  0  0  0  0  0
    0.7999   -2.3303    2.2197 H   0  0  0  0  0  0  0  0  0  0  0  0
    1.2703   -0.6431    2.4101 H   0  0  0  0  0  0  0  0  0  0  0  0
    2.6502   -2.7403    0.6737 H   0  0  0  0  0  0  0  0  0  0  0  0
    3.2486   -2.0399    2.1677 H   0  0  0  0  0  0  0  0  0  0  0  0
    5.0540   -0.6119    1.6556 H   0  0  0  0  0  0  0  0  0  0  0  0
    4.9650    2.1210   -1.6350 H   0  0  0  0  0  0  0  0  0  0  0  0
    4.9572    0.4163   -2.1255 H   0  0  0  0  0  0  0  0  0  0  0  0
    2.6845    1.4115   -2.2383 H   0  0  0  0  0  0  0  0  0  0  0  0
    2.8122    1.9536   -0.5738 H   0  0  0  0  0  0  0  0  0  0  0  0
    3.6269   -1.5772   -2.0200 H   0  0  0  0  0  0  0  0  0  0  0  0
    2.2138   -0.9131   -2.8199 H   0  0  0  0  0  0  0  0  0  0  0  0
    2.0275   -2.1817   -1.6103 H   0  0  0  0  0  0  0  0  0  0  0  0
   -1.4858   -1.8053    1.2984 H   0  0  0  0  0  0  0  0  0  0  0  0
   -0.5669    0.9995    1.9798 H   0  0  0  0  0  0  0  0  0  0  0  0
   -1.2121   -0.2709    3.0155 H   0  0  0  0  0  0  0  0  0  0  0  0
   -2.6215    1.8593    1.7069 H   0  0  0  0  0  0  0  0  0  0  0  0
   -3.3262    0.5965    2.7141 H   0  0  0  0  0  0  0  0  0  0  0  0
   -4.5628   -1.3919    0.3487 H   0  0  0  0  0  0  0  0  0  0  0  0
   -3.3576    2.7969   -0.2910 H   0  0  0  0  0  0  0  0  0  0  0  0
   -4.7462    2.6854    0.8319 H   0  0  0  0  0  0  0  0  0  0  0  0
   -5.8780    2.2731   -1.3480 H   0  0  0  0  0  0  0  0  0  0  0  0
  1  2  1  0
  2  3  1  0
  3  4  1  0
  4  5  2  0
  4  6  1  0
  6  7  1  0
  7  8  1  0
  8  9  1  0
  9 10  1  0
 10 11  2  0
 11 12  1  0
 12 13  2  0
 12 14  1  0
 14 15  1  0
 15 16  1  0
 16 17  1  0
  7 18  1  0
 18 19  1  0
 19 20  1  0
 20 21  1  0
 21 22  1  0
 21 23  1  0
 23 24  2  0
 23 25  1  0
 25 26  1  0
 21  2  1  0
 18  2  1  0
 16  6  1  0
 16 10  1  0
  1 27  1  0
  1 28  1  0
  1 29  1  0
  3 30  1  0
  3 31  1  0
  6 32  1  0
  7 33  1  0
  8 34  1  0
  8 35  1  0
  9 36  1  0
  9 37  1  0
 11 38  1  0
 14 39  1  0
 14 40  1  0
 15 41  1  0
 15 42  1  0
 17 43  1  0
 17 44  1  0
 17 45  1  0
 18 46  1  0
 19 47  1  0
 19 48  1  0
 20 49  1  0
 20 50  1  0
 22 51  1  0
 25 52  1  0
 25 53  1  0
 26 54  1  0
M  END
>  <Energy>  (1) 
112.84435977745379

>  <Real charge>  (1) 
0

>  <Mult>  (1) 
1

$$$$
mol_341 517
     RDKit          3D

 54 57  0  0  0  0  0  0  0  0999 V2000
   -2.4314   -0.8882    1.4296 C   0  0  0  0  0  0  0  0  0  0  0  0
   -1.7857   -1.0664    0.0439 C   0  0  0  0  0  0  0  0  0  0  0  0
   -0.6304   -2.0910    0.1763 C   0  0  0  0  0  0  0  0  0  0  0  0
    0.5622   -1.4991    0.8942 C   0  0  0  0  0  0  0  0  0  0  0  0
    1.0360   -2.0628    1.8770 O   0  0  0  0  0  0  0  0  0  0  0  0
    1.1483   -0.2293    0.2751 C   0  0  0  0  0  0  0  0  0  0  0  0
    0.0130    0.8142    0.1512 C   0  0  0  0  0  0  0  0  0  0  0  0
    0.5220    2.0768   -0.5625 C   0  0  0  0  0  0  0  0  0  0  0  0
    1.7246    2.6781    0.1513 C   0  0  0  0  0  0  0  0  0  0  0  0
    2.8299    1.6644    0.3291 C   0  0  0  0  0  0  0  0  0  0  0  0
    4.0838    1.9745   -0.0463 C   0  0  0  0  0  0  0  0  0  0  0  0
    5.2268    1.0740    0.2309 C   0  0  0  0  0  0  0  0  0  0  0  0
    6.3464    1.3800   -0.1709 O   0  0  0  0  0  0  0  0  0  0  0  0
    4.9746   -0.1468    1.0746 C   0  0  0  0  0  0  0  0  0  0  0  0
    3.5889   -0.7076    0.7884 C   0  0  0  0  0  0  0  0  0  0  0  0
    2.4394    0.3272    0.9828 C   0  0  0  0  0  0  0  0  0  0  0  0
    2.2377    0.6024    2.4916 C   0  0  0  0  0  0  0  0  0  0  0  0
   -1.2628    0.2683   -0.5346 C   0  0  0  0  0  0  0  0  0  0  0  0
   -1.1492   -0.0008   -2.0445 C   0  0  0  0  0  0  0  0  0  0  0  0
   -2.1621   -1.1033   -2.3732 C   0  0  0  0  0  0  0  0  0  0  0  0
   -2.8044   -1.5222   -1.0438 C   0  0  0  0  0  0  0  0  0  0  0  0
   -2.9041   -2.9541   -1.0394 O   0  0  0  0  0  0  0  0  0  0  0  0
   -4.2532   -0.9929   -0.8870 C   0  0  0  0  0  0  0  0  0  0  0  0
   -5.1478   -1.7551   -0.4907 O   0  0  0  0  0  0  0  0  0  0  0  0
   -4.5746    0.4713   -1.1616 C   0  0  0  0  0  0  0  0  0  0  0  0
   -5.9743    0.6685   -1.3132 O   0  0  0  0  0  0  0  0  0  0  0  0
   -2.9139   -1.8159    1.7572 H   0  0  0  0  0  0  0  0  0  0  0  0
   -3.1887   -0.0988    1.4326 H   0  0  0  0  0  0  0  0  0  0  0  0
   -1.6920   -0.6155    2.1901 H   0  0  0  0  0  0  0  0  0  0  0  0
   -0.2693   -2.4391   -0.7986 H   0  0  0  0  0  0  0  0  0  0  0  0
   -0.9618   -2.9795    0.7276 H   0  0  0  0  0  0  0  0  0  0  0  0
    1.4473   -0.5215   -0.7423 H   0  0  0  0  0  0  0  0  0  0  0  0
   -0.2912    1.1069    1.1652 H   0  0  0  0  0  0  0  0  0  0  0  0
    0.8024    1.8456   -1.5977 H   0  0  0  0  0  0  0  0  0  0  0  0
   -0.2779    2.8257   -0.6097 H   0  0  0  0  0  0  0  0  0  0  0  0
    2.0720    3.5504   -0.4159 H   0  0  0  0  0  0  0  0  0  0  0  0
    1.4197    3.0532    1.1358 H   0  0  0  0  0  0  0  0  0  0  0  0
    4.3442    2.9185   -0.5129 H   0  0  0  0  0  0  0  0  0  0  0  0
    5.7270   -0.9030    0.8249 H   0  0  0  0  0  0  0  0  0  0  0  0
    5.0957    0.1209    2.1289 H   0  0  0  0  0  0  0  0  0  0  0  0
    3.4355   -1.5877    1.4226 H   0  0  0  0  0  0  0  0  0  0  0  0
    3.5809   -1.0716   -0.2487 H   0  0  0  0  0  0  0  0  0  0  0  0
    1.3304    1.1808    2.6907 H   0  0  0  0  0  0  0  0  0  0  0  0
    3.0753    1.1739    2.9098 H   0  0  0  0  0  0  0  0  0  0  0  0
    2.1721   -0.3195    3.0761 H   0  0  0  0  0  0  0  0  0  0  0  0
   -2.0313    1.0401   -0.4048 H   0  0  0  0  0  0  0  0  0  0  0  0
   -0.1467   -0.3360   -2.3299 H   0  0  0  0  0  0  0  0  0  0  0  0
   -1.3598    0.9071   -2.6205 H   0  0  0  0  0  0  0  0  0  0  0  0
   -1.6421   -1.9447   -2.8486 H   0  0  0  0  0  0  0  0  0  0  0  0
   -2.8962   -0.7544   -3.1069 H   0  0  0  0  0  0  0  0  0  0  0  0
   -3.7339   -3.1837   -0.5689 H   0  0  0  0  0  0  0  0  0  0  0  0
   -4.0942    0.8159   -2.0775 H   0  0  0  0  0  0  0  0  0  0  0  0
   -4.2439    1.0794   -0.3178 H   0  0  0  0  0  0  0  0  0  0  0  0
   -6.4133   -0.0278   -0.7830 H   0  0  0  0  0  0  0  0  0  0  0  0
  1  2  1  0
  2  3  1  0
  3  4  1  0
  4  5  2  0
  4  6  1  0
  6  7  1  0
  7  8  1  0
  8  9  1  0
  9 10  1  0
 10 11  2  0
 11 12  1  0
 12 13  2  0
 12 14  1  0
 14 15  1  0
 15 16  1  0
 16 17  1  0
  7 18  1  0
 18 19  1  0
 19 20  1  0
 20 21  1  0
 21 22  1  0
 21 23  1  0
 23 24  2  0
 23 25  1  0
 25 26  1  0
 21  2  1  0
 18  2  1  0
 16  6  1  0
 16 10  1  0
  1 27  1  0
  1 28  1  0
  1 29  1  0
  3 30  1  0
  3 31  1  0
  6 32  1  0
  7 33  1  0
  8 34  1  0
  8 35  1  0
  9 36  1  0
  9 37  1  0
 11 38  1  0
 14 39  1  0
 14 40  1  0
 15 41  1  0
 15 42  1  0
 17 43  1  0
 17 44  1  0
 17 45  1  0
 18 46  1  0
 19 47  1  0
 19 48  1  0
 20 49  1  0
 20 50  1  0
 22 51  1  0
 25 52  1  0
 25 53  1  0
 26 54  1  0
M  END
>  <Energy>  (2) 
113.07420791972478

>  <Real charge>  (2) 
0

>  <Mult>  (2) 
1

$$$$
mol_341 461
     RDKit          3D

 54 57  0  0  0  0  0  0  0  0999 V2000
   -2.8542   -0.9906    1.8409 C   0  0  0  0  0  0  0  0  0  0  0  0
   -1.8861   -0.4631    0.7508 C   0  0  0  0  0  0  0  0  0  0  0  0
   -1.2280   -1.6903    0.1073 C   0  0  0  0  0  0  0  0  0  0  0  0
    0.0041   -1.3438   -0.6907 C   0  0  0  0  0  0  0  0  0  0  0  0
    0.1079   -1.7211   -1.8549 O   0  0  0  0  0  0  0  0  0  0  0  0
    1.0874   -0.5886    0.0715 C   0  0  0  0  0  0  0  0  0  0  0  0
    0.4749    0.7225    0.6174 C   0  0  0  0  0  0  0  0  0  0  0  0
    1.5148    1.4260    1.5148 C   0  0  0  0  0  0  0  0  0  0  0  0
    2.8109    1.7076    0.7665 C   0  0  0  0  0  0  0  0  0  0  0  0
    3.3881    0.4550    0.1538 C   0  0  0  0  0  0  0  0  0  0  0  0
    4.6822    0.1490    0.3559 C   0  0  0  0  0  0  0  0  0  0  0  0
    5.3289   -0.9942   -0.3285 C   0  0  0  0  0  0  0  0  0  0  0  0
    6.5009   -1.2629   -0.0775 O   0  0  0  0  0  0  0  0  0  0  0  0
    4.5349   -1.7319   -1.3730 C   0  0  0  0  0  0  0  0  0  0  0  0
    3.0660   -1.7856   -0.9779 C   0  0  0  0  0  0  0  0  0  0  0  0
    2.4349   -0.3853   -0.7123 C   0  0  0  0  0  0  0  0  0  0  0  0
    2.2528    0.3656   -2.0520 C   0  0  0  0  0  0  0  0  0  0  0  0
   -0.8433    0.4853    1.4150 C   0  0  0  0  0  0  0  0  0  0  0  0
   -1.6337    1.7967    1.5884 C   0  0  0  0  0  0  0  0  0  0  0  0
   -2.6964    1.8327    0.4804 C   0  0  0  0  0  0  0  0  0  0  0  0
   -2.6190    0.4835   -0.2499 C   0  0  0  0  0  0  0  0  0  0  0  0
   -1.7989    0.7033   -1.4087 O   0  0  0  0  0  0  0  0  0  0  0  0
   -3.9522   -0.0718   -0.7882 C   0  0  0  0  0  0  0  0  0  0  0  0
   -3.9533   -0.8748   -1.7315 O   0  0  0  0  0  0  0  0  0  0  0  0
   -5.2689    0.3813   -0.1740 C   0  0  0  0  0  0  0  0  0  0  0  0
   -6.3461   -0.4469   -0.5890 O   0  0  0  0  0  0  0  0  0  0  0  0
   -3.5907   -1.6817    1.4161 H   0  0  0  0  0  0  0  0  0  0  0  0
   -2.3062   -1.5398    2.6156 H   0  0  0  0  0  0  0  0  0  0  0  0
   -3.4015   -0.1878    2.3438 H   0  0  0  0  0  0  0  0  0  0  0  0
   -1.9355   -2.2179   -0.5420 H   0  0  0  0  0  0  0  0  0  0  0  0
   -0.9072   -2.4096    0.8717 H   0  0  0  0  0  0  0  0  0  0  0  0
    1.3163   -1.2262    0.9404 H   0  0  0  0  0  0  0  0  0  0  0  0
    0.2548    1.3910   -0.2229 H   0  0  0  0  0  0  0  0  0  0  0  0
    1.1230    2.3752    1.8947 H   0  0  0  0  0  0  0  0  0  0  0  0
    1.7296    0.8032    2.3934 H   0  0  0  0  0  0  0  0  0  0  0  0
    2.6252    2.4422   -0.0266 H   0  0  0  0  0  0  0  0  0  0  0  0
    3.5224    2.1751    1.4582 H   0  0  0  0  0  0  0  0  0  0  0  0
    5.3404    0.7476    0.9762 H   0  0  0  0  0  0  0  0  0  0  0  0
    4.6788   -1.2394   -2.3397 H   0  0  0  0  0  0  0  0  0  0  0  0
    4.9243   -2.7532   -1.4481 H   0  0  0  0  0  0  0  0  0  0  0  0
    2.9830   -2.4010   -0.0709 H   0  0  0  0  0  0  0  0  0  0  0  0
    2.5184   -2.3203   -1.7617 H   0  0  0  0  0  0  0  0  0  0  0  0
    1.7568   -0.2499   -2.8077 H   0  0  0  0  0  0  0  0  0  0  0  0
    3.2186    0.6620   -2.4790 H   0  0  0  0  0  0  0  0  0  0  0  0
    1.6640    1.2810   -1.9390 H   0  0  0  0  0  0  0  0  0  0  0  0
   -0.5655    0.0944    2.4031 H   0  0  0  0  0  0  0  0  0  0  0  0
   -2.1314    1.7998    2.5661 H   0  0  0  0  0  0  0  0  0  0  0  0
   -1.0118    2.6955    1.5564 H   0  0  0  0  0  0  0  0  0  0  0  0
   -3.6670    2.0283    0.9438 H   0  0  0  0  0  0  0  0  0  0  0  0
   -2.4941    2.6678   -0.2009 H   0  0  0  0  0  0  0  0  0  0  0  0
   -1.9438   -0.0496   -2.0235 H   0  0  0  0  0  0  0  0  0  0  0  0
   -5.4781    1.4048   -0.4959 H   0  0  0  0  0  0  0  0  0  0  0  0
   -5.2208    0.3332    0.9147 H   0  0  0  0  0  0  0  0  0  0  0  0
   -6.1109   -0.7823   -1.4783 H   0  0  0  0  0  0  0  0  0  0  0  0
  1  2  1  0
  2  3  1  0
  3  4  1  0
  4  5  2  0
  4  6  1  0
  6  7  1  0
  7  8  1  0
  8  9  1  0
  9 10  1  0
 10 11  2  0
 11 12  1  0
 12 13  2  0
 12 14  1  0
 14 15  1  0
 15 16  1  0
 16 17  1  0
  7 18  1  0
 18 19  1  0
 19 20  1  0
 20 21  1  0
 21 22  1  0
 21 23  1  0
 23 24  2  0
 23 25  1  0
 25 26  1  0
 21  2  1  0
 18  2  1  0
 16  6  1  0
 16 10  1  0
  1 27  1  0
  1 28  1  0
  1 29  1  0
  3 30  1  0
  3 31  1  0
  6 32  1  0
  7 33  1  0
  8 34  1  0
  8 35  1  0
  9 36  1  0
  9 37  1  0
 11 38  1  0
 14 39  1  0
 14 40  1  0
 15 41  1  0
 15 42  1  0
 17 43  1  0
 17 44  1  0
 17 45  1  0
 18 46  1  0
 19 47  1  0
 19 48  1  0
 20 49  1  0
 20 50  1  0
 22 51  1  0
 25 52  1  0
 25 53  1  0
 26 54  1  0
M  END
>  <Energy>  (3) 
113.09890857692848

>  <Real charge>  (3) 
0

>  <Mult>  (3) 
1

$$$$
mol_341 456
     RDKit          3D

 54 57  0  0  0  0  0  0  0  0999 V2000
   -2.2723   -0.8856   -1.5473 C   0  0  0  0  0  0  0  0  0  0  0  0
   -1.9709   -0.1702   -0.2156 C   0  0  0  0  0  0  0  0  0  0  0  0
   -1.2351   -1.1379    0.7345 C   0  0  0  0  0  0  0  0  0  0  0  0
    0.1773   -1.4095    0.2623 C   0  0  0  0  0  0  0  0  0  0  0  0
    0.5590   -2.5655    0.0998 O   0  0  0  0  0  0  0  0  0  0  0  0
    1.0721   -0.1804    0.0878 C   0  0  0  0  0  0  0  0  0  0  0  0
    0.3581    0.8115   -0.8616 C   0  0  0  0  0  0  0  0  0  0  0  0
    1.1637    2.1152   -0.9751 C   0  0  0  0  0  0  0  0  0  0  0  0
    2.5849    1.8527   -1.4537 C   0  0  0  0  0  0  0  0  0  0  0  0
    3.2913    0.8451   -0.5773 C   0  0  0  0  0  0  0  0  0  0  0  0
    4.5131    1.1281   -0.0912 C   0  0  0  0  0  0  0  0  0  0  0  0
    5.3061    0.1269    0.6588 C   0  0  0  0  0  0  0  0  0  0  0  0
    6.3988    0.4459    1.1203 O   0  0  0  0  0  0  0  0  0  0  0  0
    4.7672   -1.2756    0.7495 C   0  0  0  0  0  0  0  0  0  0  0  0
    3.2482   -1.2518    0.8415 C   0  0  0  0  0  0  0  0  0  0  0  0
    2.5590   -0.4857   -0.3281 C   0  0  0  0  0  0  0  0  0  0  0  0
    2.6686   -1.3157   -1.6287 C   0  0  0  0  0  0  0  0  0  0  0  0
   -1.1108    1.0978   -0.4680 C   0  0  0  0  0  0  0  0  0  0  0  0
   -1.3054    1.9391    0.8009 C   0  0  0  0  0  0  0  0  0  0  0  0
   -2.6780    1.5582    1.3655 C   0  0  0  0  0  0  0  0  0  0  0  0
   -3.2431    0.4519    0.4464 C   0  0  0  0  0  0  0  0  0  0  0  0
   -4.0326    1.0974   -0.5552 O   0  0  0  0  0  0  0  0  0  0  0  0
   -4.0962   -0.5657    1.2392 C   0  0  0  0  0  0  0  0  0  0  0  0
   -3.8949   -0.8052    2.4349 O   0  0  0  0  0  0  0  0  0  0  0  0
   -5.1779   -1.3335    0.4858 C   0  0  0  0  0  0  0  0  0  0  0  0
   -6.0534   -2.0008    1.3876 O   0  0  0  0  0  0  0  0  0  0  0  0
   -1.3584   -1.2501   -2.0282 H   0  0  0  0  0  0  0  0  0  0  0  0
   -2.7660   -0.2228   -2.2657 H   0  0  0  0  0  0  0  0  0  0  0  0
   -2.9178   -1.7545   -1.3958 H   0  0  0  0  0  0  0  0  0  0  0  0
   -1.7688   -2.0938    0.7993 H   0  0  0  0  0  0  0  0  0  0  0  0
   -1.1577   -0.7468    1.7551 H   0  0  0  0  0  0  0  0  0  0  0  0
    1.1132    0.2819    1.0850 H   0  0  0  0  0  0  0  0  0  0  0  0
    0.3222    0.3600   -1.8617 H   0  0  0  0  0  0  0  0  0  0  0  0
    0.6697    2.7984   -1.6765 H   0  0  0  0  0  0  0  0  0  0  0  0
    1.2035    2.6280   -0.0060 H   0  0  0  0  0  0  0  0  0  0  0  0
    2.5638    1.4788   -2.4846 H   0  0  0  0  0  0  0  0  0  0  0  0
    3.1288    2.8048   -1.4832 H   0  0  0  0  0  0  0  0  0  0  0  0
    5.0144    2.0737   -0.2684 H   0  0  0  0  0  0  0  0  0  0  0  0
    5.1745   -1.7463    1.6511 H   0  0  0  0  0  0  0  0  0  0  0  0
    5.1137   -1.8442   -0.1191 H   0  0  0  0  0  0  0  0  0  0  0  0
    2.8908   -2.2859    0.8974 H   0  0  0  0  0  0  0  0  0  0  0  0
    2.9761   -0.7810    1.7967 H   0  0  0  0  0  0  0  0  0  0  0  0
    2.0572   -0.9039   -2.4373 H   0  0  0  0  0  0  0  0  0  0  0  0
    3.7010   -1.3470   -1.9977 H   0  0  0  0  0  0  0  0  0  0  0  0
    2.3611   -2.3551   -1.4838 H   0  0  0  0  0  0  0  0  0  0  0  0
   -1.5586    1.6661   -1.2976 H   0  0  0  0  0  0  0  0  0  0  0  0
   -0.5363    1.7391    1.5540 H   0  0  0  0  0  0  0  0  0  0  0  0
   -1.2601    3.0097    0.5726 H   0  0  0  0  0  0  0  0  0  0  0  0
   -2.5485    1.2238    2.4007 H   0  0  0  0  0  0  0  0  0  0  0  0
   -3.3284    2.4398    1.3959 H   0  0  0  0  0  0  0  0  0  0  0  0
   -4.6685    1.6924   -0.1169 H   0  0  0  0  0  0  0  0  0  0  0  0
   -4.7139   -2.0849   -0.1544 H   0  0  0  0  0  0  0  0  0  0  0  0
   -5.7822   -0.6504   -0.1142 H   0  0  0  0  0  0  0  0  0  0  0  0
   -5.5215   -2.2165    2.1800 H   0  0  0  0  0  0  0  0  0  0  0  0
  1  2  1  0
  2  3  1  0
  3  4  1  0
  4  5  2  0
  4  6  1  0
  6  7  1  0
  7  8  1  0
  8  9  1  0
  9 10  1  0
 10 11  2  0
 11 12  1  0
 12 13  2  0
 12 14  1  0
 14 15  1  0
 15 16  1  0
 16 17  1  0
  7 18  1  0
 18 19  1  0
 19 20  1  0
 20 21  1  0
 21 22  1  0
 21 23  1  0
 23 24  2  0
 23 25  1  0
 25 26  1  0
 21  2  1  0
 18  2  1  0
 16  6  1  0
 16 10  1  0
  1 27  1  0
  1 28  1  0
  1 29  1  0
  3 30  1  0
  3 31  1  0
  6 32  1  0
  7 33  1  0
  8 34  1  0
  8 35  1  0
  9 36  1  0
  9 37  1  0
 11 38  1  0
 14 39  1  0
 14 40  1  0
 15 41  1  0
 15 42  1  0
 17 43  1  0
 17 44  1  0
 17 45  1  0
 18 46  1  0
 19 47  1  0
 19 48  1  0
 20 49  1  0
 20 50  1  0
 22 51  1  0
 25 52  1  0
 25 53  1  0
 26 54  1  0
M  END
>  <Energy>  (4) 
113.26623413853947

>  <Real charge>  (4) 
0

>  <Mult>  (4) 
1

$$$$
mol_341 281
     RDKit          3D

 54 57  0  0  0  0  0  0  0  0999 V2000
    2.3982   -1.4498    0.5894 C   0  0  0  0  0  0  0  0  0  0  0  0
    1.9348    0.0169    0.5294 C   0  0  0  0  0  0  0  0  0  0  0  0
    1.1186    0.3190    1.8085 C   0  0  0  0  0  0  0  0  0  0  0  0
   -0.2406   -0.3463    1.7757 C   0  0  0  0  0  0  0  0  0  0  0  0
   -0.6069   -1.0450    2.7174 O   0  0  0  0  0  0  0  0  0  0  0  0
   -1.1205   -0.0152    0.5674 C   0  0  0  0  0  0  0  0  0  0  0  0
   -0.3207   -0.3262   -0.7201 C   0  0  0  0  0  0  0  0  0  0  0  0
   -1.1210    0.0924   -1.9635 C   0  0  0  0  0  0  0  0  0  0  0  0
   -2.4819   -0.5878   -2.0069 C   0  0  0  0  0  0  0  0  0  0  0  0
   -3.2673   -0.3415   -0.7403 C   0  0  0  0  0  0  0  0  0  0  0  0
   -4.5339    0.1042   -0.8201 C   0  0  0  0  0  0  0  0  0  0  0  0
   -5.3926    0.2335    0.3795 C   0  0  0  0  0  0  0  0  0  0  0  0
   -6.5270    0.6901    0.2635 O   0  0  0  0  0  0  0  0  0  0  0  0
   -4.8583   -0.2843    1.6879 C   0  0  0  0  0  0  0  0  0  0  0  0
   -3.3570   -0.0494    1.7733 C   0  0  0  0  0  0  0  0  0  0  0  0
   -2.5552   -0.6638    0.5857 C   0  0  0  0  0  0  0  0  0  0  0  0
   -2.5236   -2.2043    0.7221 C   0  0  0  0  0  0  0  0  0  0  0  0
    1.0936    0.2995   -0.7376 C   0  0  0  0  0  0  0  0  0  0  0  0
    1.1467    1.8294   -0.8891 C   0  0  0  0  0  0  0  0  0  0  0  0
    2.4248    2.2955   -0.1840 C   0  0  0  0  0  0  0  0  0  0  0  0
    3.1117    1.0301    0.3682 C   0  0  0  0  0  0  0  0  0  0  0  0
    3.6990    1.3259    1.6299 O   0  0  0  0  0  0  0  0  0  0  0  0
    4.2053    0.5572   -0.6257 C   0  0  0  0  0  0  0  0  0  0  0  0
    4.0887    0.6765   -1.8502 O   0  0  0  0  0  0  0  0  0  0  0  0
    5.4661   -0.0730   -0.0399 C   0  0  0  0  0  0  0  0  0  0  0  0
    6.2600   -0.6820   -1.0503 O   0  0  0  0  0  0  0  0  0  0  0  0
    1.5553   -2.1376    0.7161 H   0  0  0  0  0  0  0  0  0  0  0  0
    3.0780   -1.6111    1.4329 H   0  0  0  0  0  0  0  0  0  0  0  0
    2.9153   -1.7531   -0.3268 H   0  0  0  0  0  0  0  0  0  0  0  0
    0.9392    1.3913    1.9469 H   0  0  0  0  0  0  0  0  0  0  0  0
    1.6558   -0.0285    2.6995 H   0  0  0  0  0  0  0  0  0  0  0  0
   -1.2668    1.0739    0.6155 H   0  0  0  0  0  0  0  0  0  0  0  0
   -0.1723   -1.4130   -0.7740 H   0  0  0  0  0  0  0  0  0  0  0  0
   -0.5619   -0.1667   -2.8708 H   0  0  0  0  0  0  0  0  0  0  0  0
   -1.2659    1.1797   -1.9792 H   0  0  0  0  0  0  0  0  0  0  0  0
   -3.0271   -0.2305   -2.8891 H   0  0  0  0  0  0  0  0  0  0  0  0
   -2.3506   -1.6681   -2.1436 H   0  0  0  0  0  0  0  0  0  0  0  0
   -5.0202    0.3350   -1.7619 H   0  0  0  0  0  0  0  0  0  0  0  0
   -5.3534    0.2550    2.5030 H   0  0  0  0  0  0  0  0  0  0  0  0
   -5.1104   -1.3455    1.7776 H   0  0  0  0  0  0  0  0  0  0  0  0
   -3.1873    1.0361    1.8053 H   0  0  0  0  0  0  0  0  0  0  0  0
   -3.0021   -0.4430    2.7319 H   0  0  0  0  0  0  0  0  0  0  0  0
   -3.5117   -2.6428    0.5369 H   0  0  0  0  0  0  0  0  0  0  0  0
   -2.2263   -2.5254    1.7243 H   0  0  0  0  0  0  0  0  0  0  0  0
   -1.8336   -2.6701    0.0120 H   0  0  0  0  0  0  0  0  0  0  0  0
    1.6133   -0.1267   -1.6079 H   0  0  0  0  0  0  0  0  0  0  0  0
    1.1592    2.1136   -1.9472 H   0  0  0  0  0  0  0  0  0  0  0  0
    0.2827    2.3244   -0.4343 H   0  0  0  0  0  0  0  0  0  0  0  0
    3.0673    2.8549   -0.8737 H   0  0  0  0  0  0  0  0  0  0  0  0
    2.1673    2.9934    0.6226 H   0  0  0  0  0  0  0  0  0  0  0  0
    4.1427    2.1922    1.5731 H   0  0  0  0  0  0  0  0  0  0  0  0
    5.2047   -0.8395    0.6914 H   0  0  0  0  0  0  0  0  0  0  0  0
    6.0618    0.7085    0.4391 H   0  0  0  0  0  0  0  0  0  0  0  0
    6.0059   -0.2579   -1.8950 H   0  0  0  0  0  0  0  0  0  0  0  0
  1  2  1  0
  2  3  1  0
  3  4  1  0
  4  5  2  0
  4  6  1  0
  6  7  1  0
  7  8  1  0
  8  9  1  0
  9 10  1  0
 10 11  2  0
 11 12  1  0
 12 13  2  0
 12 14  1  0
 14 15  1  0
 15 16  1  0
 16 17  1  0
  7 18  1  0
 18 19  1  0
 19 20  1  0
 20 21  1  0
 21 22  1  0
 21 23  1  0
 23 24  2  0
 23 25  1  0
 25 26  1  0
 21  2  1  0
 18  2  1  0
 16  6  1  0
 16 10  1  0
  1 27  1  0
  1 28  1  0
  1 29  1  0
  3 30  1  0
  3 31  1  0
  6 32  1  0
  7 33  1  0
  8 34  1  0
  8 35  1  0
  9 36  1  0
  9 37  1  0
 11 38  1  0
 14 39  1  0
 14 40  1  0
 15 41  1  0
 15 42  1  0
 17 43  1  0
 17 44  1  0
 17 45  1  0
 18 46  1  0
 19 47  1  0
 19 48  1  0
 20 49  1  0
 20 50  1  0
 22 51  1  0
 25 52  1  0
 25 53  1  0
 26 54  1  0
M  END
>  <Energy>  (5) 
113.36655456636718

>  <Real charge>  (5) 
0

>  <Mult>  (5) 
1

$$$$
mol_341 466
     RDKit          3D

 54 57  0  0  0  0  0  0  0  0999 V2000
   -2.1829    1.8474   -0.3058 C   0  0  0  0  0  0  0  0  0  0  0  0
   -1.9485    0.3372   -0.1094 C   0  0  0  0  0  0  0  0  0  0  0  0
   -1.3406    0.0923    1.2883 C   0  0  0  0  0  0  0  0  0  0  0  0
    0.0905    0.5811    1.3631 C   0  0  0  0  0  0  0  0  0  0  0  0
    0.4285    1.3644    2.2466 O   0  0  0  0  0  0  0  0  0  0  0  0
    1.0561   -0.0188    0.3385 C   0  0  0  0  0  0  0  0  0  0  0  0
    0.4716    0.2133   -1.0753 C   0  0  0  0  0  0  0  0  0  0  0  0
    1.3473   -0.4736   -2.1350 C   0  0  0  0  0  0  0  0  0  0  0  0
    2.7881    0.0140   -2.0695 C   0  0  0  0  0  0  0  0  0  0  0  0
    3.3699   -0.1508   -0.6852 C   0  0  0  0  0  0  0  0  0  0  0  0
    4.5601   -0.7586   -0.5324 C   0  0  0  0  0  0  0  0  0  0  0  0
    5.2387   -0.8269    0.7823 C   0  0  0  0  0  0  0  0  0  0  0  0
    6.3037   -1.4310    0.8805 O   0  0  0  0  0  0  0  0  0  0  0  0
    4.6266   -0.0727    1.9321 C   0  0  0  0  0  0  0  0  0  0  0  0
    3.1081   -0.1023    1.8331 C   0  0  0  0  0  0  0  0  0  0  0  0
    2.5552    0.4393    0.4799 C   0  0  0  0  0  0  0  0  0  0  0  0
    2.7300    1.9751    0.4249 C   0  0  0  0  0  0  0  0  0  0  0  0
   -1.0077   -0.2184   -1.2122 C   0  0  0  0  0  0  0  0  0  0  0  0
   -1.2625   -1.7335   -1.1917 C   0  0  0  0  0  0  0  0  0  0  0  0
   -2.6857   -1.9273   -0.6558 C   0  0  0  0  0  0  0  0  0  0  0  0
   -3.2348   -0.5162   -0.3559 C   0  0  0  0  0  0  0  0  0  0  0  0
   -3.8970   -0.0551   -1.5368 O   0  0  0  0  0  0  0  0  0  0  0  0
   -4.2111   -0.5237    0.8400 C   0  0  0  0  0  0  0  0  0  0  0  0
   -4.0900   -1.3043    1.7900 O   0  0  0  0  0  0  0  0  0  0  0  0
   -5.3578    0.4819    0.8244 C   0  0  0  0  0  0  0  0  0  0  0  0
   -6.0508    0.5026    2.0659 O   0  0  0  0  0  0  0  0  0  0  0  0
   -2.5955    2.0733   -1.2945 H   0  0  0  0  0  0  0  0  0  0  0  0
   -2.8744    2.2407    0.4452 H   0  0  0  0  0  0  0  0  0  0  0  0
   -1.2532    2.4183   -0.2113 H   0  0  0  0  0  0  0  0  0  0  0  0
   -1.3255   -0.9689    1.5604 H   0  0  0  0  0  0  0  0  0  0  0  0
   -1.9244    0.6104    2.0587 H   0  0  0  0  0  0  0  0  0  0  0  0
    1.0382   -1.1010    0.5344 H   0  0  0  0  0  0  0  0  0  0  0  0
    0.4937    1.2918   -1.2802 H   0  0  0  0  0  0  0  0  0  0  0  0
    1.3335   -1.5620   -1.9983 H   0  0  0  0  0  0  0  0  0  0  0  0
    0.9463   -0.2737   -3.1360 H   0  0  0  0  0  0  0  0  0  0  0  0
    2.8326    1.0725   -2.3535 H   0  0  0  0  0  0  0  0  0  0  0  0
    3.3789   -0.5299   -2.8167 H   0  0  0  0  0  0  0  0  0  0  0  0
    5.1199   -1.1770   -1.3620 H   0  0  0  0  0  0  0  0  0  0  0  0
    5.0149    0.9506    1.9304 H   0  0  0  0  0  0  0  0  0  0  0  0
    4.9352   -0.5541    2.8667 H   0  0  0  0  0  0  0  0  0  0  0  0
    2.7821   -1.1430    1.9702 H   0  0  0  0  0  0  0  0  0  0  0  0
    2.6972    0.4608    2.6782 H   0  0  0  0  0  0  0  0  0  0  0  0
    2.2064    2.4228   -0.4254 H   0  0  0  0  0  0  0  0  0  0  0  0
    2.3623    2.4666    1.3300 H   0  0  0  0  0  0  0  0  0  0  0  0
    3.7861    2.2546    0.3284 H   0  0  0  0  0  0  0  0  0  0  0  0
   -1.3573    0.1492   -2.1890 H   0  0  0  0  0  0  0  0  0  0  0  0
   -0.5571   -2.2662   -0.5457 H   0  0  0  0  0  0  0  0  0  0  0  0
   -1.1622   -2.1593   -2.1962 H   0  0  0  0  0  0  0  0  0  0  0  0
   -3.2956   -2.4612   -1.3933 H   0  0  0  0  0  0  0  0  0  0  0  0
   -2.6419   -2.5602    0.2375 H   0  0  0  0  0  0  0  0  0  0  0  0
   -4.4926   -0.7553   -1.8600 H   0  0  0  0  0  0  0  0  0  0  0  0
   -6.0678    0.1976    0.0433 H   0  0  0  0  0  0  0  0  0  0  0  0
   -4.9800    1.4867    0.6332 H   0  0  0  0  0  0  0  0  0  0  0  0
   -5.8045   -0.3197    2.5365 H   0  0  0  0  0  0  0  0  0  0  0  0
  1  2  1  0
  2  3  1  0
  3  4  1  0
  4  5  2  0
  4  6  1  0
  6  7  1  0
  7  8  1  0
  8  9  1  0
  9 10  1  0
 10 11  2  0
 11 12  1  0
 12 13  2  0
 12 14  1  0
 14 15  1  0
 15 16  1  0
 16 17  1  0
  7 18  1  0
 18 19  1  0
 19 20  1  0
 20 21  1  0
 21 22  1  0
 21 23  1  0
 23 24  2  0
 23 25  1  0
 25 26  1  0
 21  2  1  0
 18  2  1  0
 16  6  1  0
 16 10  1  0
  1 27  1  0
  1 28  1  0
  1 29  1  0
  3 30  1  0
  3 31  1  0
  6 32  1  0
  7 33  1  0
  8 34  1  0
  8 35  1  0
  9 36  1  0
  9 37  1  0
 11 38  1  0
 14 39  1  0
 14 40  1  0
 15 41  1  0
 15 42  1  0
 17 43  1  0
 17 44  1  0
 17 45  1  0
 18 46  1  0
 19 47  1  0
 19 48  1  0
 20 49  1  0
 20 50  1  0
 22 51  1  0
 25 52  1  0
 25 53  1  0
 26 54  1  0
M  END
>  <Energy>  (6) 
113.38805560010046

>  <Real charge>  (6) 
0

>  <Mult>  (6) 
1

$$$$
