mol_566 133
     RDKit          3D

 16 15  0  0  0  0  0  0  0  0999 V2000
    2.8113    0.2225   -0.3228 C   0  0  0  0  0  0  0  0  0  0  0  0
    1.7191    0.0556    0.7189 C   0  0  0  0  0  0  0  0  0  0  0  0
    0.3974    1.3013    0.5512 S   0  0  0  0  0  0  0  0  0  0  0  0
   -0.5192    0.7836   -1.2185 S   0  0  0  0  0  0  0  0  0  0  0  0
   -1.6920   -0.5203   -0.7174 C   0  0  0  0  0  0  0  0  0  0  0  0
   -2.8252    0.0149    0.1401 C   0  0  0  0  0  0  0  0  0  0  0  0
    3.6125   -0.5007   -0.1371 H   0  0  0  0  0  0  0  0  0  0  0  0
    3.2542    1.2233   -0.2823 H   0  0  0  0  0  0  0  0  0  0  0  0
    2.4425    0.0451   -1.3375 H   0  0  0  0  0  0  0  0  0  0  0  0
    1.2867   -0.9490    0.6741 H   0  0  0  0  0  0  0  0  0  0  0  0
    2.1537    0.1748    1.7168 H   0  0  0  0  0  0  0  0  0  0  0  0
   -1.1542   -1.3205   -0.1991 H   0  0  0  0  0  0  0  0  0  0  0  0
   -2.1083   -0.9528   -1.6331 H   0  0  0  0  0  0  0  0  0  0  0  0
   -3.3731    0.8129   -0.3722 H   0  0  0  0  0  0  0  0  0  0  0  0
   -3.5372   -0.7890    0.3551 H   0  0  0  0  0  0  0  0  0  0  0  0
   -2.4684    0.3981    1.1009 H   0  0  0  0  0  0  0  0  0  0  0  0
  1  2  1  0
  2  3  1  0
  3  4  1  0
  4  5  1  0
  5  6  1  0
  1  7  1  0
  1  8  1  0
  1  9  1  0
  2 10  1  0
  2 11  1  0
  5 12  1  0
  5 13  1  0
  6 14  1  0
  6 15  1  0
  6 16  1  0
M  END
>  <Energy>  (1) 
-3.8732854912509103

>  <Real charge>  (1) 
0

>  <Mult>  (1) 
1

$$$$
mol_566 138
     RDKit          3D

 16 15  0  0  0  0  0  0  0  0999 V2000
   -2.0501    0.2347   -0.7809 C   0  0  0  0  0  0  0  0  0  0  0  0
   -1.9310    1.0417    0.4983 C   0  0  0  0  0  0  0  0  0  0  0  0
   -0.2070    1.3523    1.0117 S   0  0  0  0  0  0  0  0  0  0  0  0
    0.5100   -0.5150    1.4965 S   0  0  0  0  0  0  0  0  0  0  0  0
    1.3233   -1.0758   -0.0381 C   0  0  0  0  0  0  0  0  0  0  0  0
    2.5793   -0.2804   -0.3485 C   0  0  0  0  0  0  0  0  0  0  0  0
   -1.7260   -0.8003   -0.6406 H   0  0  0  0  0  0  0  0  0  0  0  0
   -3.0975    0.2011   -1.0996 H   0  0  0  0  0  0  0  0  0  0  0  0
   -1.4703    0.6804   -1.5957 H   0  0  0  0  0  0  0  0  0  0  0  0
   -2.4703    0.5535    1.3166 H   0  0  0  0  0  0  0  0  0  0  0  0
   -2.3985    2.0202    0.3463 H   0  0  0  0  0  0  0  0  0  0  0  0
    0.6218   -1.0327   -0.8757 H   0  0  0  0  0  0  0  0  0  0  0  0
    1.5911   -2.1281    0.1028 H   0  0  0  0  0  0  0  0  0  0  0  0
    2.3581    0.7696   -0.5629 H   0  0  0  0  0  0  0  0  0  0  0  0
    3.2965   -0.3245    0.4780 H   0  0  0  0  0  0  0  0  0  0  0  0
    3.0708   -0.6967   -1.2343 H   0  0  0  0  0  0  0  0  0  0  0  0
  1  2  1  0
  2  3  1  0
  3  4  1  0
  4  5  1  0
  5  6  1  0
  1  7  1  0
  1  8  1  0
  1  9  1  0
  2 10  1  0
  2 11  1  0
  5 12  1  0
  5 13  1  0
  6 14  1  0
  6 15  1  0
  6 16  1  0
M  END
>  <Energy>  (2) 
-3.228347619254384

>  <Real charge>  (2) 
0

>  <Mult>  (2) 
1

$$$$
mol_566 108
     RDKit          3D

 16 15  0  0  0  0  0  0  0  0999 V2000
   -2.7225    0.2224   -0.7715 C   0  0  0  0  0  0  0  0  0  0  0  0
   -1.8181    0.8639    0.2660 C   0  0  0  0  0  0  0  0  0  0  0  0
   -0.9825   -0.3670    1.3216 S   0  0  0  0  0  0  0  0  0  0  0  0
    0.3204   -1.2953    0.0269 S   0  0  0  0  0  0  0  0  0  0  0  0
    1.7513   -0.1708    0.0597 C   0  0  0  0  0  0  0  0  0  0  0  0
    2.8471   -0.7039   -0.8467 C   0  0  0  0  0  0  0  0  0  0  0  0
   -3.4760   -0.4204   -0.3039 H   0  0  0  0  0  0  0  0  0  0  0  0
   -2.1592   -0.3718   -1.4973 H   0  0  0  0  0  0  0  0  0  0  0  0
   -3.2534    1.0003   -1.3305 H   0  0  0  0  0  0  0  0  0  0  0  0
   -1.0722    1.5078   -0.2108 H   0  0  0  0  0  0  0  0  0  0  0  0
   -2.4202    1.5003    0.9227 H   0  0  0  0  0  0  0  0  0  0  0  0
    1.4447    0.8223   -0.2830 H   0  0  0  0  0  0  0  0  0  0  0  0
    2.1291   -0.0918    1.0839 H   0  0  0  0  0  0  0  0  0  0  0  0
    3.7082   -0.0275   -0.8266 H   0  0  0  0  0  0  0  0  0  0  0  0
    2.5092   -0.7779   -1.8860 H   0  0  0  0  0  0  0  0  0  0  0  0
    3.1942   -1.6906   -0.5214 H   0  0  0  0  0  0  0  0  0  0  0  0
  1  2  1  0
  2  3  1  0
  3  4  1  0
  4  5  1  0
  5  6  1  0
  1  7  1  0
  1  8  1  0
  1  9  1  0
  2 10  1  0
  2 11  1  0
  5 12  1  0
  5 13  1  0
  6 14  1  0
  6 15  1  0
  6 16  1  0
M  END
>  <Energy>  (3) 
-3.123355518345039

>  <Real charge>  (3) 
0

>  <Mult>  (3) 
1

$$$$
