mol_407 170
     RDKit          3D

 21 21  0  0  0  0  0  0  0  0999 V2000
    3.8353   -0.0139    0.7827 N   0  0  0  0  0  0  0  0  0  0  0  0
    2.9819    0.3143   -0.2197 C   0  0  0  0  0  0  0  0  0  0  0  0
    3.3766    0.7640   -1.2837 O   0  0  0  0  0  0  0  0  0  0  0  0
    1.6833    0.0857    0.1181 N   0  0  0  0  0  0  0  0  0  0  0  0
    0.6510    0.2649   -0.8757 C   0  0  0  0  0  0  0  0  0  0  0  0
   -0.7112    0.0520   -0.2723 C   0  0  0  0  0  0  0  0  0  0  0  0
   -1.3122    1.0620    0.4926 C   0  0  0  0  0  0  0  0  0  0  0  0
   -2.5654    0.8602    1.0728 C   0  0  0  0  0  0  0  0  0  0  0  0
   -3.2266   -0.3543    0.8997 C   0  0  0  0  0  0  0  0  0  0  0  0
   -2.6349   -1.3687    0.1491 C   0  0  0  0  0  0  0  0  0  0  0  0
   -1.3815   -1.1690   -0.4320 C   0  0  0  0  0  0  0  0  0  0  0  0
    4.7872    0.2743    0.5910 H   0  0  0  0  0  0  0  0  0  0  0  0
    3.5172    0.2089    1.7150 H   0  0  0  0  0  0  0  0  0  0  0  0
    1.5491   -0.6736    0.7694 H   0  0  0  0  0  0  0  0  0  0  0  0
    0.7302    1.2721   -1.3022 H   0  0  0  0  0  0  0  0  0  0  0  0
    0.8323   -0.4427   -1.6937 H   0  0  0  0  0  0  0  0  0  0  0  0
   -0.8018    2.0118    0.6393 H   0  0  0  0  0  0  0  0  0  0  0  0
   -3.0250    1.6506    1.6605 H   0  0  0  0  0  0  0  0  0  0  0  0
   -4.2030   -0.5106    1.3509 H   0  0  0  0  0  0  0  0  0  0  0  0
   -3.1505   -2.3164    0.0159 H   0  0  0  0  0  0  0  0  0  0  0  0
   -0.9321   -1.9716   -1.0129 H   0  0  0  0  0  0  0  0  0  0  0  0
  1  2  1  0
  2  3  2  0
  2  4  1  0
  4  5  1  0
  5  6  1  0
  6  7  2  0
  7  8  1  0
  8  9  2  0
  9 10  1  0
 10 11  2  0
 11  6  1  0
  1 12  1  0
  1 13  1  0
  4 14  1  0
  5 15  1  0
  5 16  1  0
  7 17  1  0
  8 18  1  0
  9 19  1  0
 10 20  1  0
 11 21  1  0
M  END
>  <Energy>  (1) 
-95.23941749668585

>  <Real charge>  (1) 
0

>  <Mult>  (1) 
1

$$$$
