mol_746 415
     RDKit          3D

 42 44  0  0  0  0  0  0  0  0999 V2000
    4.6921    0.5416   -1.2742 C   0  0  0  0  0  0  0  0  0  0  0  0
    3.3097    0.3517   -0.6681 C   0  0  0  0  0  0  0  0  0  0  0  0
    3.3408    0.5289    0.8548 C   0  0  0  0  0  0  0  0  0  0  0  0
    1.9830    0.3521    1.5337 C   0  0  0  0  0  0  0  0  0  0  0  0
    1.3792   -1.0104    1.3068 C   0  0  0  0  0  0  0  0  0  0  0  0
    1.9520   -2.0584    1.5681 O   0  0  0  0  0  0  0  0  0  0  0  0
    0.1058   -0.7945    0.7534 N   0  0  0  0  0  0  0  0  0  0  0  0
   -0.1434    0.5834    0.6378 N   0  0  0  0  0  0  0  0  0  0  0  0
    0.9470    1.3334    1.0520 C   0  0  0  0  0  0  0  0  0  0  0  0
    1.0985    2.5459    1.0645 O   0  0  0  0  0  0  0  0  0  0  0  0
   -1.3843    1.0372    0.1622 C   0  0  0  0  0  0  0  0  0  0  0  0
   -1.7041    2.3913    0.0028 C   0  0  0  0  0  0  0  0  0  0  0  0
   -2.9641    2.7762   -0.4801 C   0  0  0  0  0  0  0  0  0  0  0  0
   -3.3098    4.2302   -0.6171 C   0  0  0  0  0  0  0  0  0  0  0  0
   -3.9108    1.7916   -0.7766 C   0  0  0  0  0  0  0  0  0  0  0  0
   -3.5933    0.4423   -0.6166 C   0  0  0  0  0  0  0  0  0  0  0  0
   -2.3345    0.0566   -0.1505 C   0  0  0  0  0  0  0  0  0  0  0  0
   -2.0731   -1.3146   -0.0097 N   0  0  0  0  0  0  0  0  0  0  0  0
   -0.9014   -1.7123    0.4088 C   0  0  0  0  0  0  0  0  0  0  0  0
   -0.6535   -3.0724    0.5300 N   0  0  0  0  0  0  0  0  0  0  0  0
   -1.7917   -3.9533    0.7961 C   0  0  0  0  0  0  0  0  0  0  0  0
    0.3250   -3.6793   -0.3746 C   0  0  0  0  0  0  0  0  0  0  0  0
    5.4008   -0.1891   -0.8716 H   0  0  0  0  0  0  0  0  0  0  0  0
    5.0770    1.5452   -1.0668 H   0  0  0  0  0  0  0  0  0  0  0  0
    4.6506    0.4116   -2.3602 H   0  0  0  0  0  0  0  0  0  0  0  0
    2.6235    1.0756   -1.1214 H   0  0  0  0  0  0  0  0  0  0  0  0
    2.9456   -0.6486   -0.9276 H   0  0  0  0  0  0  0  0  0  0  0  0
    4.0495   -0.1926    1.2808 H   0  0  0  0  0  0  0  0  0  0  0  0
    3.7292    1.5285    1.0875 H   0  0  0  0  0  0  0  0  0  0  0  0
    2.0829    0.4883    2.6176 H   0  0  0  0  0  0  0  0  0  0  0  0
   -0.9854    3.1687    0.2475 H   0  0  0  0  0  0  0  0  0  0  0  0
   -3.7025    4.6119    0.3302 H   0  0  0  0  0  0  0  0  0  0  0  0
   -4.0620    4.3820   -1.3984 H   0  0  0  0  0  0  0  0  0  0  0  0
   -2.4279    4.8155   -0.8981 H   0  0  0  0  0  0  0  0  0  0  0  0
   -4.9007    2.0660   -1.1343 H   0  0  0  0  0  0  0  0  0  0  0  0
   -4.3307   -0.3203   -0.8531 H   0  0  0  0  0  0  0  0  0  0  0  0
   -1.4435   -4.9460    1.1013 H   0  0  0  0  0  0  0  0  0  0  0  0
   -2.4213   -4.0654   -0.0933 H   0  0  0  0  0  0  0  0  0  0  0  0
   -2.4024   -3.5576    1.6151 H   0  0  0  0  0  0  0  0  0  0  0  0
    0.7917   -4.5465    0.1036 H   0  0  0  0  0  0  0  0  0  0  0  0
    1.1191   -2.9834   -0.6607 H   0  0  0  0  0  0  0  0  0  0  0  0
   -0.1629   -4.0110   -1.2982 H   0  0  0  0  0  0  0  0  0  0  0  0
  1  2  1  0
  2  3  1  0
  3  4  1  0
  4  5  1  0
  5  6  2  0
  5  7  1  0
  7  8  1  0
  8  9  1  0
  9 10  2  0
  8 11  1  0
 11 12  2  0
 12 13  1  0
 13 14  1  0
 13 15  2  0
 15 16  1  0
 16 17  2  0
 17 18  1  0
 18 19  2  0
 19 20  1  0
 20 21  1  0
 20 22  1  0
  9  4  1  0
 17 11  1  0
 19  7  1  0
  1 23  1  0
  1 24  1  0
  1 25  1  0
  2 26  1  0
  2 27  1  0
  3 28  1  0
  3 29  1  0
  4 30  1  0
 12 31  1  0
 14 32  1  0
 14 33  1  0
 14 34  1  0
 15 35  1  0
 16 36  1  0
 21 37  1  0
 21 38  1  0
 21 39  1  0
 22 40  1  0
 22 41  1  0
 22 42  1  0
M  END
>  <Energy>  (1) 
-6.880393972475194

>  <Real charge>  (1) 
0

>  <Mult>  (1) 
1

$$$$
mol_746 388
     RDKit          3D

 42 44  0  0  0  0  0  0  0  0999 V2000
    4.8012   -0.2155    1.1644 C   0  0  0  0  0  0  0  0  0  0  0  0
    3.3774   -0.2128    0.6286 C   0  0  0  0  0  0  0  0  0  0  0  0
    3.3587   -0.3004   -0.9022 C   0  0  0  0  0  0  0  0  0  0  0  0
    1.9571   -0.3032   -1.5109 C   0  0  0  0  0  0  0  0  0  0  0  0
    1.1077   -1.4588   -1.0462 C   0  0  0  0  0  0  0  0  0  0  0  0
    1.4579   -2.6283   -1.1102 O   0  0  0  0  0  0  0  0  0  0  0  0
   -0.1022   -0.9055   -0.5935 N   0  0  0  0  0  0  0  0  0  0  0  0
   -0.0450    0.4975   -0.6584 N   0  0  0  0  0  0  0  0  0  0  0  0
    1.1622    0.9334   -1.1842 C   0  0  0  0  0  0  0  0  0  0  0  0
    1.5620    2.0720   -1.3760 O   0  0  0  0  0  0  0  0  0  0  0  0
   -1.1075    1.2694   -0.1611 C   0  0  0  0  0  0  0  0  0  0  0  0
   -1.1314    2.6692   -0.1986 C   0  0  0  0  0  0  0  0  0  0  0  0
   -2.2287    3.3795    0.3117 C   0  0  0  0  0  0  0  0  0  0  0  0
   -2.2314    4.8802    0.2969 C   0  0  0  0  0  0  0  0  0  0  0  0
   -3.2909    2.6745    0.8844 C   0  0  0  0  0  0  0  0  0  0  0  0
   -3.2669    1.2799    0.9238 C   0  0  0  0  0  0  0  0  0  0  0  0
   -2.1823    0.5705    0.4032 C   0  0  0  0  0  0  0  0  0  0  0  0
   -2.2107   -0.8300    0.4785 N   0  0  0  0  0  0  0  0  0  0  0  0
   -1.2184   -1.5271   -0.0073 C   0  0  0  0  0  0  0  0  0  0  0  0
   -1.2640   -2.9119    0.0734 N   0  0  0  0  0  0  0  0  0  0  0  0
   -2.0377   -3.5090    1.1628 C   0  0  0  0  0  0  0  0  0  0  0  0
   -1.3631   -3.6771   -1.1706 C   0  0  0  0  0  0  0  0  0  0  0  0
    5.3256   -1.1334    0.8803 H   0  0  0  0  0  0  0  0  0  0  0  0
    5.3673    0.6381    0.7782 H   0  0  0  0  0  0  0  0  0  0  0  0
    4.7948   -0.1524    2.2570 H   0  0  0  0  0  0  0  0  0  0  0  0
    2.8348   -1.0588    1.0648 H   0  0  0  0  0  0  0  0  0  0  0  0
    2.8764    0.7023    0.9634 H   0  0  0  0  0  0  0  0  0  0  0  0
    3.9250    0.5453   -1.3126 H   0  0  0  0  0  0  0  0  0  0  0  0
    3.8846   -1.2126   -1.2115 H   0  0  0  0  0  0  0  0  0  0  0  0
    2.0238   -0.3677   -2.6041 H   0  0  0  0  0  0  0  0  0  0  0  0
   -0.3053    3.2318   -0.6248 H   0  0  0  0  0  0  0  0  0  0  0  0
   -1.7339    5.2638    1.1929 H   0  0  0  0  0  0  0  0  0  0  0  0
   -3.2544    5.2698    0.2665 H   0  0  0  0  0  0  0  0  0  0  0  0
   -1.7127    5.2620   -0.5888 H   0  0  0  0  0  0  0  0  0  0  0  0
   -4.1438    3.2035    1.3038 H   0  0  0  0  0  0  0  0  0  0  0  0
   -4.0964    0.7353    1.3673 H   0  0  0  0  0  0  0  0  0  0  0  0
   -1.8039   -4.5749    1.2584 H   0  0  0  0  0  0  0  0  0  0  0  0
   -1.7878   -3.0352    2.1184 H   0  0  0  0  0  0  0  0  0  0  0  0
   -3.1138   -3.4051    0.9860 H   0  0  0  0  0  0  0  0  0  0  0  0
   -0.8739   -3.1764   -2.0112 H   0  0  0  0  0  0  0  0  0  0  0  0
   -0.8973   -4.6600   -1.0455 H   0  0  0  0  0  0  0  0  0  0  0  0
   -2.4135   -3.8220   -1.4470 H   0  0  0  0  0  0  0  0  0  0  0  0
  1  2  1  0
  2  3  1  0
  3  4  1  0
  4  5  1  0
  5  6  2  0
  5  7  1  0
  7  8  1  0
  8  9  1  0
  9 10  2  0
  8 11  1  0
 11 12  2  0
 12 13  1  0
 13 14  1  0
 13 15  2  0
 15 16  1  0
 16 17  2  0
 17 18  1  0
 18 19  2  0
 19 20  1  0
 20 21  1  0
 20 22  1  0
  9  4  1  0
 17 11  1  0
 19  7  1  0
  1 23  1  0
  1 24  1  0
  1 25  1  0
  2 26  1  0
  2 27  1  0
  3 28  1  0
  3 29  1  0
  4 30  1  0
 12 31  1  0
 14 32  1  0
 14 33  1  0
 14 34  1  0
 15 35  1  0
 16 36  1  0
 21 37  1  0
 21 38  1  0
 21 39  1  0
 22 40  1  0
 22 41  1  0
 22 42  1  0
M  END
>  <Energy>  (2) 
-6.8686836804751

>  <Real charge>  (2) 
0

>  <Mult>  (2) 
1

$$$$
mol_746 145
     RDKit          3D

 42 44  0  0  0  0  0  0  0  0999 V2000
    3.5107    3.4597   -0.4551 C   0  0  0  0  0  0  0  0  0  0  0  0
    2.5032    2.3650   -0.1374 C   0  0  0  0  0  0  0  0  0  0  0  0
    2.4603    2.0677    1.3663 C   0  0  0  0  0  0  0  0  0  0  0  0
    1.4675    0.9745    1.7591 C   0  0  0  0  0  0  0  0  0  0  0  0
    1.7567   -0.3548    1.1092 C   0  0  0  0  0  0  0  0  0  0  0  0
    2.8431   -0.9132    1.1586 O   0  0  0  0  0  0  0  0  0  0  0  0
    0.5551   -0.7756    0.5141 N   0  0  0  0  0  0  0  0  0  0  0  0
   -0.4309    0.2147    0.6658 N   0  0  0  0  0  0  0  0  0  0  0  0
    0.0446    1.2992    1.3880 C   0  0  0  0  0  0  0  0  0  0  0  0
   -0.5225    2.3355    1.7002 O   0  0  0  0  0  0  0  0  0  0  0  0
   -1.6874    0.0563    0.0589 C   0  0  0  0  0  0  0  0  0  0  0  0
   -2.7250    0.9902    0.1721 C   0  0  0  0  0  0  0  0  0  0  0  0
   -3.9540    0.7745   -0.4696 C   0  0  0  0  0  0  0  0  0  0  0  0
   -5.0718    1.7641   -0.3152 C   0  0  0  0  0  0  0  0  0  0  0  0
   -4.1422   -0.3981   -1.2065 C   0  0  0  0  0  0  0  0  0  0  0  0
   -3.1082   -1.3279   -1.3213 C   0  0  0  0  0  0  0  0  0  0  0  0
   -1.8792   -1.1083   -0.6953 C   0  0  0  0  0  0  0  0  0  0  0  0
   -0.8748   -2.0749   -0.8527 N   0  0  0  0  0  0  0  0  0  0  0  0
    0.2808   -1.9127   -0.2654 C   0  0  0  0  0  0  0  0  0  0  0  0
    1.2624   -2.8800   -0.4300 N   0  0  0  0  0  0  0  0  0  0  0  0
    1.2351   -3.6816   -1.6542 C   0  0  0  0  0  0  0  0  0  0  0  0
    1.6759   -3.6562    0.7402 C   0  0  0  0  0  0  0  0  0  0  0  0
    4.5195    3.1655   -0.1483 H   0  0  0  0  0  0  0  0  0  0  0  0
    3.2526    4.3915    0.0581 H   0  0  0  0  0  0  0  0  0  0  0  0
    3.5275    3.6582   -1.5313 H   0  0  0  0  0  0  0  0  0  0  0  0
    1.5156    2.6814   -0.4909 H   0  0  0  0  0  0  0  0  0  0  0  0
    2.7750    1.4626   -0.6961 H   0  0  0  0  0  0  0  0  0  0  0  0
    3.4644    1.7749    1.6985 H   0  0  0  0  0  0  0  0  0  0  0  0
    2.2066    2.9906    1.9031 H   0  0  0  0  0  0  0  0  0  0  0  0
    1.4930    0.8180    2.8447 H   0  0  0  0  0  0  0  0  0  0  0  0
   -2.6007    1.8964    0.7585 H   0  0  0  0  0  0  0  0  0  0  0  0
   -5.7402    1.7383   -1.1822 H   0  0  0  0  0  0  0  0  0  0  0  0
   -5.6514    1.5359    0.5845 H   0  0  0  0  0  0  0  0  0  0  0  0
   -4.6810    2.7841   -0.2373 H   0  0  0  0  0  0  0  0  0  0  0  0
   -5.0921   -0.5960   -1.6982 H   0  0  0  0  0  0  0  0  0  0  0  0
   -3.2560   -2.2348   -1.9018 H   0  0  0  0  0  0  0  0  0  0  0  0
    1.1192   -3.0390   -2.5338 H   0  0  0  0  0  0  0  0  0  0  0  0
    2.1764   -4.2288   -1.7741 H   0  0  0  0  0  0  0  0  0  0  0  0
    0.4137   -4.4061   -1.6335 H   0  0  0  0  0  0  0  0  0  0  0  0
    1.0470   -4.5470    0.8491 H   0  0  0  0  0  0  0  0  0  0  0  0
    1.5942   -3.0874    1.6710 H   0  0  0  0  0  0  0  0  0  0  0  0
    2.7170   -3.9764    0.6303 H   0  0  0  0  0  0  0  0  0  0  0  0
  1  2  1  0
  2  3  1  0
  3  4  1  0
  4  5  1  0
  5  6  2  0
  5  7  1  0
  7  8  1  0
  8  9  1  0
  9 10  2  0
  8 11  1  0
 11 12  2  0
 12 13  1  0
 13 14  1  0
 13 15  2  0
 15 16  1  0
 16 17  2  0
 17 18  1  0
 18 19  2  0
 19 20  1  0
 20 21  1  0
 20 22  1  0
  9  4  1  0
 17 11  1  0
 19  7  1  0
  1 23  1  0
  1 24  1  0
  1 25  1  0
  2 26  1  0
  2 27  1  0
  3 28  1  0
  3 29  1  0
  4 30  1  0
 12 31  1  0
 14 32  1  0
 14 33  1  0
 14 34  1  0
 15 35  1  0
 16 36  1  0
 21 37  1  0
 21 38  1  0
 21 39  1  0
 22 40  1  0
 22 41  1  0
 22 42  1  0
M  END
>  <Energy>  (3) 
-6.867246313751955

>  <Real charge>  (3) 
0

>  <Mult>  (3) 
1

$$$$
mol_746 174
     RDKit          3D

 42 44  0  0  0  0  0  0  0  0999 V2000
    5.4100   -1.2566    0.6406 C   0  0  0  0  0  0  0  0  0  0  0  0
    4.3544   -0.8512   -0.3767 C   0  0  0  0  0  0  0  0  0  0  0  0
    2.9439   -1.1767    0.1219 C   0  0  0  0  0  0  0  0  0  0  0  0
    1.8668   -0.8058   -0.8997 C   0  0  0  0  0  0  0  0  0  0  0  0
    1.4898    0.6556   -0.8253 C   0  0  0  0  0  0  0  0  0  0  0  0
    2.2740    1.5716   -1.0280 O   0  0  0  0  0  0  0  0  0  0  0  0
    0.1306    0.7072   -0.4759 N   0  0  0  0  0  0  0  0  0  0  0  0
   -0.3920   -0.5909   -0.3833 N   0  0  0  0  0  0  0  0  0  0  0  0
    0.5836   -1.5473   -0.6136 C   0  0  0  0  0  0  0  0  0  0  0  0
    0.4897   -2.7662   -0.6093 O   0  0  0  0  0  0  0  0  0  0  0  0
   -1.7590   -0.7839   -0.1244 C   0  0  0  0  0  0  0  0  0  0  0  0
   -2.3547   -2.0459   -0.0056 C   0  0  0  0  0  0  0  0  0  0  0  0
   -3.7276   -2.1669    0.2581 C   0  0  0  0  0  0  0  0  0  0  0  0
   -4.3633   -3.5232    0.3513 C   0  0  0  0  0  0  0  0  0  0  0  0
   -4.5040   -1.0107    0.3757 C   0  0  0  0  0  0  0  0  0  0  0  0
   -3.9117    0.2470    0.2562 C   0  0  0  0  0  0  0  0  0  0  0  0
   -2.5427    0.3695    0.0085 C   0  0  0  0  0  0  0  0  0  0  0  0
   -2.0041    1.6598   -0.1046 N   0  0  0  0  0  0  0  0  0  0  0  0
   -0.7254    1.8123   -0.3243 C   0  0  0  0  0  0  0  0  0  0  0  0
   -0.2071    3.0959   -0.4248 N   0  0  0  0  0  0  0  0  0  0  0  0
   -1.0995    4.1598   -0.8870 C   0  0  0  0  0  0  0  0  0  0  0  0
    0.7193    3.5522    0.6130 C   0  0  0  0  0  0  0  0  0  0  0  0
    6.4098   -1.0174    0.2649 H   0  0  0  0  0  0  0  0  0  0  0  0
    5.3707   -2.3322    0.8400 H   0  0  0  0  0  0  0  0  0  0  0  0
    5.2666   -0.7256    1.5871 H   0  0  0  0  0  0  0  0  0  0  0  0
    4.5453   -1.3773   -1.3193 H   0  0  0  0  0  0  0  0  0  0  0  0
    4.4516    0.2207   -0.5779 H   0  0  0  0  0  0  0  0  0  0  0  0
    2.8941   -2.2497    0.3466 H   0  0  0  0  0  0  0  0  0  0  0  0
    2.7622   -0.6526    1.0694 H   0  0  0  0  0  0  0  0  0  0  0  0
    2.1646   -1.0404   -1.9278 H   0  0  0  0  0  0  0  0  0  0  0  0
   -1.7680   -2.9542   -0.1128 H   0  0  0  0  0  0  0  0  0  0  0  0
   -3.6694   -4.2496    0.7872 H   0  0  0  0  0  0  0  0  0  0  0  0
   -4.6582   -3.8670   -0.6448 H   0  0  0  0  0  0  0  0  0  0  0  0
   -5.2503   -3.4968    0.9930 H   0  0  0  0  0  0  0  0  0  0  0  0
   -5.5736   -1.0791    0.5611 H   0  0  0  0  0  0  0  0  0  0  0  0
   -4.5182    1.1437    0.3526 H   0  0  0  0  0  0  0  0  0  0  0  0
   -1.8272    4.4288   -0.1137 H   0  0  0  0  0  0  0  0  0  0  0  0
   -1.6387    3.8469   -1.7878 H   0  0  0  0  0  0  0  0  0  0  0  0
   -0.5244    5.0549   -1.1476 H   0  0  0  0  0  0  0  0  0  0  0  0
    1.3125    2.7352    1.0342 H   0  0  0  0  0  0  0  0  0  0  0  0
    1.4109    4.2937    0.2000 H   0  0  0  0  0  0  0  0  0  0  0  0
    0.1684    4.0125    1.4410 H   0  0  0  0  0  0  0  0  0  0  0  0
  1  2  1  0
  2  3  1  0
  3  4  1  0
  4  5  1  0
  5  6  2  0
  5  7  1  0
  7  8  1  0
  8  9  1  0
  9 10  2  0
  8 11  1  0
 11 12  2  0
 12 13  1  0
 13 14  1  0
 13 15  2  0
 15 16  1  0
 16 17  2  0
 17 18  1  0
 18 19  2  0
 19 20  1  0
 20 21  1  0
 20 22  1  0
  9  4  1  0
 17 11  1  0
 19  7  1  0
  1 23  1  0
  1 24  1  0
  1 25  1  0
  2 26  1  0
  2 27  1  0
  3 28  1  0
  3 29  1  0
  4 30  1  0
 12 31  1  0
 14 32  1  0
 14 33  1  0
 14 34  1  0
 15 35  1  0
 16 36  1  0
 21 37  1  0
 21 38  1  0
 21 39  1  0
 22 40  1  0
 22 41  1  0
 22 42  1  0
M  END
>  <Energy>  (4) 
-6.198301340166763

>  <Real charge>  (4) 
0

>  <Mult>  (4) 
1

$$$$
mol_746 239
     RDKit          3D

 42 44  0  0  0  0  0  0  0  0999 V2000
   -4.9281   -1.8366    1.8044 C   0  0  0  0  0  0  0  0  0  0  0  0
   -4.0015   -1.7095    0.6049 C   0  0  0  0  0  0  0  0  0  0  0  0
   -3.0639   -0.5076    0.7482 C   0  0  0  0  0  0  0  0  0  0  0  0
   -2.1431   -0.3421   -0.4627 C   0  0  0  0  0  0  0  0  0  0  0  0
   -1.5953    1.0646   -0.5281 C   0  0  0  0  0  0  0  0  0  0  0  0
   -2.2981    2.0604   -0.6291 O   0  0  0  0  0  0  0  0  0  0  0  0
   -0.1985    0.9622   -0.4338 N   0  0  0  0  0  0  0  0  0  0  0  0
    0.1815   -0.3862   -0.3710 N   0  0  0  0  0  0  0  0  0  0  0  0
   -0.9220   -1.2251   -0.3745 C   0  0  0  0  0  0  0  0  0  0  0  0
   -0.9638   -2.4455   -0.3263 O   0  0  0  0  0  0  0  0  0  0  0  0
    1.5422   -0.7349   -0.3518 C   0  0  0  0  0  0  0  0  0  0  0  0
    2.0032   -2.0553   -0.2764 C   0  0  0  0  0  0  0  0  0  0  0  0
    3.3786   -2.3328   -0.2570 C   0  0  0  0  0  0  0  0  0  0  0  0
    3.8631   -3.7524   -0.2090 C   0  0  0  0  0  0  0  0  0  0  0  0
    4.2890   -1.2757   -0.3406 C   0  0  0  0  0  0  0  0  0  0  0  0
    3.8308    0.0400   -0.4172 C   0  0  0  0  0  0  0  0  0  0  0  0
    2.4623    0.3192   -0.4215 C   0  0  0  0  0  0  0  0  0  0  0  0
    2.0616    1.6609   -0.5036 N   0  0  0  0  0  0  0  0  0  0  0  0
    0.7900    1.9599   -0.4972 C   0  0  0  0  0  0  0  0  0  0  0  0
    0.4104    3.2929   -0.5702 N   0  0  0  0  0  0  0  0  0  0  0  0
   -0.2476    3.8903    0.5932 C   0  0  0  0  0  0  0  0  0  0  0  0
    1.3157    4.2259   -1.2426 C   0  0  0  0  0  0  0  0  0  0  0  0
   -5.5513   -0.9435    1.9157 H   0  0  0  0  0  0  0  0  0  0  0  0
   -5.5904   -2.6994    1.6818 H   0  0  0  0  0  0  0  0  0  0  0  0
   -4.3570   -1.9750    2.7280 H   0  0  0  0  0  0  0  0  0  0  0  0
   -3.4250   -2.6349    0.5047 H   0  0  0  0  0  0  0  0  0  0  0  0
   -4.6053   -1.6028   -0.3038 H   0  0  0  0  0  0  0  0  0  0  0  0
   -3.6741    0.3947    0.8814 H   0  0  0  0  0  0  0  0  0  0  0  0
   -2.4681   -0.6169    1.6638 H   0  0  0  0  0  0  0  0  0  0  0  0
   -2.6555   -0.5430   -1.4102 H   0  0  0  0  0  0  0  0  0  0  0  0
    1.3081   -2.8891   -0.2292 H   0  0  0  0  0  0  0  0  0  0  0  0
    4.8504   -3.8136    0.2608 H   0  0  0  0  0  0  0  0  0  0  0  0
    3.9285   -4.1596   -1.2226 H   0  0  0  0  0  0  0  0  0  0  0  0
    3.1838   -4.3761    0.3816 H   0  0  0  0  0  0  0  0  0  0  0  0
    5.3598   -1.4669   -0.3467 H   0  0  0  0  0  0  0  0  0  0  0  0
    4.5421    0.8595   -0.4778 H   0  0  0  0  0  0  0  0  0  0  0  0
   -0.8414    3.1650    1.1572 H   0  0  0  0  0  0  0  0  0  0  0  0
   -0.9145    4.6979    0.2745 H   0  0  0  0  0  0  0  0  0  0  0  0
    0.4971    4.3047    1.2821 H   0  0  0  0  0  0  0  0  0  0  0  0
    1.6386    3.8219   -2.2083 H   0  0  0  0  0  0  0  0  0  0  0  0
    2.2005    4.4291   -0.6295 H   0  0  0  0  0  0  0  0  0  0  0  0
    0.8072    5.1754   -1.4419 H   0  0  0  0  0  0  0  0  0  0  0  0
  1  2  1  0
  2  3  1  0
  3  4  1  0
  4  5  1  0
  5  6  2  0
  5  7  1  0
  7  8  1  0
  8  9  1  0
  9 10  2  0
  8 11  1  0
 11 12  2  0
 12 13  1  0
 13 14  1  0
 13 15  2  0
 15 16  1  0
 16 17  2  0
 17 18  1  0
 18 19  2  0
 19 20  1  0
 20 21  1  0
 20 22  1  0
  9  4  1  0
 17 11  1  0
 19  7  1  0
  1 23  1  0
  1 24  1  0
  1 25  1  0
  2 26  1  0
  2 27  1  0
  3 28  1  0
  3 29  1  0
  4 30  1  0
 12 31  1  0
 14 32  1  0
 14 33  1  0
 14 34  1  0
 15 35  1  0
 16 36  1  0
 21 37  1  0
 21 38  1  0
 21 39  1  0
 22 40  1  0
 22 41  1  0
 22 42  1  0
M  END
>  <Energy>  (5) 
-6.185120393588471

>  <Real charge>  (5) 
0

>  <Mult>  (5) 
1

$$$$
mol_746 283
     RDKit          3D

 42 44  0  0  0  0  0  0  0  0999 V2000
    5.4167   -1.3789    0.3940 C   0  0  0  0  0  0  0  0  0  0  0  0
    4.2125   -1.1365   -0.5031 C   0  0  0  0  0  0  0  0  0  0  0  0
    3.2157   -0.1736    0.1477 C   0  0  0  0  0  0  0  0  0  0  0  0
    2.0084    0.1064   -0.7495 C   0  0  0  0  0  0  0  0  0  0  0  0
    1.3160    1.3851   -0.3383 C   0  0  0  0  0  0  0  0  0  0  0  0
    1.8727    2.4732   -0.2948 O   0  0  0  0  0  0  0  0  0  0  0  0
   -0.0227    1.0554   -0.0738 N   0  0  0  0  0  0  0  0  0  0  0  0
   -0.2169   -0.3254   -0.2255 N   0  0  0  0  0  0  0  0  0  0  0  0
    0.9464   -0.9600   -0.6328 C   0  0  0  0  0  0  0  0  0  0  0  0
    1.1373   -2.1438   -0.8682 O   0  0  0  0  0  0  0  0  0  0  0  0
   -1.4653   -0.8982    0.0694 C   0  0  0  0  0  0  0  0  0  0  0  0
   -1.7443   -2.2636   -0.0707 C   0  0  0  0  0  0  0  0  0  0  0  0
   -3.0163   -2.7692    0.2382 C   0  0  0  0  0  0  0  0  0  0  0  0
   -3.2964   -4.2386    0.1157 C   0  0  0  0  0  0  0  0  0  0  0  0
   -3.9995   -1.8977    0.7148 C   0  0  0  0  0  0  0  0  0  0  0  0
   -3.7219   -0.5377    0.8567 C   0  0  0  0  0  0  0  0  0  0  0  0
   -2.4610   -0.0301    0.5356 C   0  0  0  0  0  0  0  0  0  0  0  0
   -2.2392    1.3446    0.7043 N   0  0  0  0  0  0  0  0  0  0  0  0
   -1.0762    1.8563    0.4011 C   0  0  0  0  0  0  0  0  0  0  0  0
   -0.8753    3.2194    0.5679 N   0  0  0  0  0  0  0  0  0  0  0  0
   -0.6718    4.0401   -0.6273 C   0  0  0  0  0  0  0  0  0  0  0  0
   -1.6636    3.9065    1.5919 C   0  0  0  0  0  0  0  0  0  0  0  0
    5.1120   -1.8193    1.3487 H   0  0  0  0  0  0  0  0  0  0  0  0
    6.1169   -2.0671   -0.0897 H   0  0  0  0  0  0  0  0  0  0  0  0
    5.9474   -0.4439    0.6000 H   0  0  0  0  0  0  0  0  0  0  0  0
    4.5559   -0.7246   -1.4592 H   0  0  0  0  0  0  0  0  0  0  0  0
    3.7329   -2.0972   -0.7175 H   0  0  0  0  0  0  0  0  0  0  0  0
    2.8834   -0.5871    1.1089 H   0  0  0  0  0  0  0  0  0  0  0  0
    3.7386    0.7634    0.3776 H   0  0  0  0  0  0  0  0  0  0  0  0
    2.2882    0.2076   -1.8043 H   0  0  0  0  0  0  0  0  0  0  0  0
   -0.9854   -2.9569   -0.4227 H   0  0  0  0  0  0  0  0  0  0  0  0
   -2.7369   -4.6735   -0.7191 H   0  0  0  0  0  0  0  0  0  0  0  0
   -3.0121   -4.7515    1.0396 H   0  0  0  0  0  0  0  0  0  0  0  0
   -4.3590   -4.4201   -0.0766 H   0  0  0  0  0  0  0  0  0  0  0  0
   -4.9871   -2.2691    0.9791 H   0  0  0  0  0  0  0  0  0  0  0  0
   -4.4903    0.1374    1.2243 H   0  0  0  0  0  0  0  0  0  0  0  0
   -0.0572    4.9129   -0.3839 H   0  0  0  0  0  0  0  0  0  0  0  0
   -1.6337    4.3895   -1.0190 H   0  0  0  0  0  0  0  0  0  0  0  0
   -0.1748    3.4914   -1.4327 H   0  0  0  0  0  0  0  0  0  0  0  0
   -2.7073    4.0179    1.2784 H   0  0  0  0  0  0  0  0  0  0  0  0
   -1.6344    3.3533    2.5370 H   0  0  0  0  0  0  0  0  0  0  0  0
   -1.2523    4.9029    1.7864 H   0  0  0  0  0  0  0  0  0  0  0  0
  1  2  1  0
  2  3  1  0
  3  4  1  0
  4  5  1  0
  5  6  2  0
  5  7  1  0
  7  8  1  0
  8  9  1  0
  9 10  2  0
  8 11  1  0
 11 12  2  0
 12 13  1  0
 13 14  1  0
 13 15  2  0
 15 16  1  0
 16 17  2  0
 17 18  1  0
 18 19  2  0
 19 20  1  0
 20 21  1  0
 20 22  1  0
  9  4  1  0
 17 11  1  0
 19  7  1  0
  1 23  1  0
  1 24  1  0
  1 25  1  0
  2 26  1  0
  2 27  1  0
  3 28  1  0
  3 29  1  0
  4 30  1  0
 12 31  1  0
 14 32  1  0
 14 33  1  0
 14 34  1  0
 15 35  1  0
 16 36  1  0
 21 37  1  0
 21 38  1  0
 21 39  1  0
 22 40  1  0
 22 41  1  0
 22 42  1  0
M  END
>  <Energy>  (6) 
-6.174291745978294

>  <Real charge>  (6) 
0

>  <Mult>  (6) 
1

$$$$
mol_746 318
     RDKit          3D

 42 44  0  0  0  0  0  0  0  0999 V2000
    5.6054    0.4266    0.4070 C   0  0  0  0  0  0  0  0  0  0  0  0
    4.4453   -0.0769   -0.4381 C   0  0  0  0  0  0  0  0  0  0  0  0
    3.1394    0.6356   -0.0756 C   0  0  0  0  0  0  0  0  0  0  0  0
    1.9632    0.1638   -0.9328 C   0  0  0  0  0  0  0  0  0  0  0  0
    1.3353   -1.1025   -0.3982 C   0  0  0  0  0  0  0  0  0  0  0  0
    1.9440   -2.1514   -0.2429 O   0  0  0  0  0  0  0  0  0  0  0  0
   -0.0211   -0.8177   -0.1705 N   0  0  0  0  0  0  0  0  0  0  0  0
   -0.2853    0.5292   -0.4591 N   0  0  0  0  0  0  0  0  0  0  0  0
    0.8466    1.1795   -0.9240 C   0  0  0  0  0  0  0  0  0  0  0  0
    0.9815    2.3422   -1.2766 O   0  0  0  0  0  0  0  0  0  0  0  0
   -1.5635    1.0629   -0.2258 C   0  0  0  0  0  0  0  0  0  0  0  0
   -1.9110    2.3913   -0.5018 C   0  0  0  0  0  0  0  0  0  0  0  0
   -3.2097    2.8585   -0.2480 C   0  0  0  0  0  0  0  0  0  0  0  0
   -3.5638    4.2920   -0.5166 C   0  0  0  0  0  0  0  0  0  0  0  0
   -4.1505    1.9887    0.3103 C   0  0  0  0  0  0  0  0  0  0  0  0
   -3.8046    0.6656    0.5874 C   0  0  0  0  0  0  0  0  0  0  0  0
   -2.5169    0.1948    0.3216 C   0  0  0  0  0  0  0  0  0  0  0  0
   -2.2260   -1.1431    0.6266 N   0  0  0  0  0  0  0  0  0  0  0  0
   -1.0359   -1.6212    0.3787 C   0  0  0  0  0  0  0  0  0  0  0  0
   -0.7667   -2.9489    0.6805 N   0  0  0  0  0  0  0  0  0  0  0  0
   -1.5264   -3.5711    1.7658 C   0  0  0  0  0  0  0  0  0  0  0  0
   -0.5124   -3.8723   -0.4268 C   0  0  0  0  0  0  0  0  0  0  0  0
    5.7627    1.4997    0.2588 H   0  0  0  0  0  0  0  0  0  0  0  0
    5.4207    0.2495    1.4714 H   0  0  0  0  0  0  0  0  0  0  0  0
    6.5285   -0.0930    0.1313 H   0  0  0  0  0  0  0  0  0  0  0  0
    4.6762    0.0882   -1.4970 H   0  0  0  0  0  0  0  0  0  0  0  0
    4.3454   -1.1574   -0.2927 H   0  0  0  0  0  0  0  0  0  0  0  0
    3.2873    1.7156   -0.2018 H   0  0  0  0  0  0  0  0  0  0  0  0
    2.9193    0.4751    0.9879 H   0  0  0  0  0  0  0  0  0  0  0  0
    2.2497   -0.0021   -1.9776 H   0  0  0  0  0  0  0  0  0  0  0  0
   -1.1858    3.0846   -0.9189 H   0  0  0  0  0  0  0  0  0  0  0  0
   -4.6328    4.3981   -0.7291 H   0  0  0  0  0  0  0  0  0  0  0  0
   -3.0207    4.6705   -1.3889 H   0  0  0  0  0  0  0  0  0  0  0  0
   -3.3136    4.9080    0.3526 H   0  0  0  0  0  0  0  0  0  0  0  0
   -5.1579    2.3328    0.5338 H   0  0  0  0  0  0  0  0  0  0  0  0
   -4.5403   -0.0086    1.0182 H   0  0  0  0  0  0  0  0  0  0  0  0
   -2.5607   -3.7669    1.4625 H   0  0  0  0  0  0  0  0  0  0  0  0
   -1.0660   -4.5207    2.0593 H   0  0  0  0  0  0  0  0  0  0  0  0
   -1.5327   -2.9262    2.6514 H   0  0  0  0  0  0  0  0  0  0  0  0
   -0.0386   -3.3810   -1.2817 H   0  0  0  0  0  0  0  0  0  0  0  0
   -1.4521   -4.3084   -0.7839 H   0  0  0  0  0  0  0  0  0  0  0  0
    0.1447   -4.6834   -0.0966 H   0  0  0  0  0  0  0  0  0  0  0  0
  1  2  1  0
  2  3  1  0
  3  4  1  0
  4  5  1  0
  5  6  2  0
  5  7  1  0
  7  8  1  0
  8  9  1  0
  9 10  2  0
  8 11  1  0
 11 12  2  0
 12 13  1  0
 13 14  1  0
 13 15  2  0
 15 16  1  0
 16 17  2  0
 17 18  1  0
 18 19  2  0
 19 20  1  0
 20 21  1  0
 20 22  1  0
  9  4  1  0
 17 11  1  0
 19  7  1  0
  1 23  1  0
  1 24  1  0
  1 25  1  0
  2 26  1  0
  2 27  1  0
  3 28  1  0
  3 29  1  0
  4 30  1  0
 12 31  1  0
 14 32  1  0
 14 33  1  0
 14 34  1  0
 15 35  1  0
 16 36  1  0
 21 37  1  0
 21 38  1  0
 21 39  1  0
 22 40  1  0
 22 41  1  0
 22 42  1  0
M  END
>  <Energy>  (7) 
-6.170333963331253

>  <Real charge>  (7) 
0

>  <Mult>  (7) 
1

$$$$
