mol_433 58
     RDKit          3D

 20 21  0  0  0  0  0  0  0  0999 V2000
   -4.1009    1.3604   -0.2128 Cl  0  0  0  0  0  0  0  0  0  0  0  0
   -2.6639    0.4486   -0.2055 C   0  0  0  0  0  0  0  0  0  0  0  0
   -1.7590    0.3783   -1.1921 C   0  0  0  0  0  0  0  0  0  0  0  0
   -1.8831    1.1539   -2.7066 Cl  0  0  0  0  0  0  0  0  0  0  0  0
   -0.6066   -0.5588   -0.8114 C   0  0  0  0  0  0  0  0  0  0  0  0
   -0.7241   -1.9773   -1.9417 Cl  0  0  0  0  0  0  0  0  0  0  0  0
   -1.1126   -1.0229    0.5590 C   0  0  0  0  0  0  0  0  0  0  0  0
   -2.2618   -0.4113    0.8769 C   0  0  0  0  0  0  0  0  0  0  0  0
   -3.1625   -0.6323    2.3037 Cl  0  0  0  0  0  0  0  0  0  0  0  0
   -0.3218   -2.2027    1.5024 Cl  0  0  0  0  0  0  0  0  0  0  0  0
    0.8499    0.0925   -0.7796 C   0  0  0  0  0  0  0  0  0  0  0  0
    1.3886    0.7035   -2.4044 Cl  0  0  0  0  0  0  0  0  0  0  0  0
    1.9829   -0.8076   -0.2724 C   0  0  0  0  0  0  0  0  0  0  0  0
    2.5720   -0.2725    0.8064 C   0  0  0  0  0  0  0  0  0  0  0  0
    3.8768   -0.9308    1.6785 Cl  0  0  0  0  0  0  0  0  0  0  0  0
    1.9579    0.9937    1.1103 C   0  0  0  0  0  0  0  0  0  0  0  0
    0.9943    1.2497    0.2151 C   0  0  0  0  0  0  0  0  0  0  0  0
    0.0720    2.6815    0.1311 Cl  0  0  0  0  0  0  0  0  0  0  0  0
    2.4452    2.0073    2.3875 Cl  0  0  0  0  0  0  0  0  0  0  0  0
    2.4567   -2.2533   -1.0444 Cl  0  0  0  0  0  0  0  0  0  0  0  0
  1  2  1  0
  2  3  2  0
  3  4  1  0
  3  5  1  0
  5  6  1  0
  5  7  1  0
  7  8  2  0
  8  9  1  0
  7 10  1  0
  5 11  1  0
 11 12  1  0
 11 13  1  0
 13 14  2  0
 14 15  1  0
 14 16  1  0
 16 17  2  0
 17 18  1  0
 16 19  1  0
 13 20  1  0
  8  2  1  0
 17 11  1  0
M  END
>  <Energy>  (1) 
56.50814335514407

>  <Real charge>  (1) 
0

>  <Mult>  (1) 
1

$$$$
