mol_519 261
     RDKit          3D

 35 36  0  0  0  0  0  0  0  0999 V2000
   -0.0376   -3.5336   -0.4878 C   0  0  0  0  0  0  0  0  0  0  0  0
   -1.0224   -2.4612   -0.0853 C   0  0  0  0  0  0  0  0  0  0  0  0
   -2.1904   -2.6045   -0.4693 O   0  0  0  0  0  0  0  0  0  0  0  0
   -0.5802   -1.3730    0.6607 N   0  0  0  0  0  0  0  0  0  0  0  0
    0.6979   -1.4992    1.7565 S   0  0  0  0  0  4  0  0  0  0  0  0
    1.3889   -2.8282    1.7245 O   0  0  0  0  0  0  0  0  0  0  0  0
    1.7872   -0.3613    0.8441 C   0  0  0  0  0  0  0  0  0  0  0  0
    1.6770    1.0220    1.0183 C   0  0  0  0  0  0  0  0  0  0  0  0
    2.5173    1.8933    0.3160 C   0  0  0  0  0  0  0  0  0  0  0  0
    3.5178    1.4011   -0.5237 C   0  0  0  0  0  0  0  0  0  0  0  0
    4.2694    2.2758   -1.3138 N   0  0  0  0  0  0  0  0  0  0  0  0
    3.6053    0.0222   -0.7206 C   0  0  0  0  0  0  0  0  0  0  0  0
    2.7680   -0.8547   -0.0228 C   0  0  0  0  0  0  0  0  0  0  0  0
   -1.4494   -0.2887    0.8245 C   0  0  0  0  0  0  0  0  0  0  0  0
   -1.3618    0.4155    1.9957 O   0  0  0  0  0  0  0  0  0  0  0  0
   -2.2772    1.4393    2.0170 N   0  0  0  0  0  0  0  0  0  0  0  0
   -2.9259    1.3667    0.8528 C   0  0  0  0  0  0  0  0  0  0  0  0
   -3.9974    2.3415    0.5383 C   0  0  0  0  0  0  0  0  0  0  0  0
   -2.4259    0.3082    0.0401 C   0  0  0  0  0  0  0  0  0  0  0  0
   -2.8573   -0.0032   -1.3449 C   0  0  0  0  0  0  0  0  0  0  0  0
    0.9362   -3.1135   -0.7405 H   0  0  0  0  0  0  0  0  0  0  0  0
    0.0394   -4.2904    0.2959 H   0  0  0  0  0  0  0  0  0  0  0  0
   -0.4073   -4.0246   -1.3949 H   0  0  0  0  0  0  0  0  0  0  0  0
    0.9388    1.4472    1.6934 H   0  0  0  0  0  0  0  0  0  0  0  0
    2.3849    2.9655    0.4387 H   0  0  0  0  0  0  0  0  0  0  0  0
    5.1491    1.8866   -1.6390 H   0  0  0  0  0  0  0  0  0  0  0  0
    4.3853    3.2008   -0.9113 H   0  0  0  0  0  0  0  0  0  0  0  0
    4.3344   -0.3864   -1.4157 H   0  0  0  0  0  0  0  0  0  0  0  0
    2.8912   -1.9255   -0.1673 H   0  0  0  0  0  0  0  0  0  0  0  0
   -3.6476    3.0616   -0.2081 H   0  0  0  0  0  0  0  0  0  0  0  0
   -4.3098    2.8979    1.4282 H   0  0  0  0  0  0  0  0  0  0  0  0
   -4.8783    1.8293    0.1383 H   0  0  0  0  0  0  0  0  0  0  0  0
   -2.0429   -0.4412   -1.9301 H   0  0  0  0  0  0  0  0  0  0  0  0
   -3.1694    0.9068   -1.8684 H   0  0  0  0  0  0  0  0  0  0  0  0
   -3.7074   -0.6920   -1.3391 H   0  0  0  0  0  0  0  0  0  0  0  0
  1  2  1  0
  2  3  2  0
  2  4  1  0
  4  5  1  0
  5  6  2  0
  5  7  1  0
  7  8  2  0
  8  9  1  0
  9 10  2  0
 10 11  1  0
 10 12  1  0
 12 13  2  0
  4 14  1  0
 14 15  1  0
 15 16  1  0
 16 17  2  0
 17 18  1  0
 17 19  1  0
 19 20  1  0
 13  7  1  0
 19 14  2  0
  1 21  1  0
  1 22  1  0
  1 23  1  0
  8 24  1  0
  9 25  1  0
 11 26  1  0
 11 27  1  0
 12 28  1  0
 13 29  1  0
 18 30  1  0
 18 31  1  0
 18 32  1  0
 20 33  1  0
 20 34  1  0
 20 35  1  0
M  END
>  <Energy>  (1) 
22.16151266870318

>  <Real charge>  (1) 
0

>  <Mult>  (1) 
1

$$$$
mol_519 139
     RDKit          3D

 35 36  0  0  0  0  0  0  0  0999 V2000
   -0.3389   -3.4633   -0.5175 C   0  0  0  0  0  0  0  0  0  0  0  0
   -1.2180   -2.2367   -0.5904 C   0  0  0  0  0  0  0  0  0  0  0  0
   -2.4098   -2.3864   -0.2919 O   0  0  0  0  0  0  0  0  0  0  0  0
   -0.6573   -1.0164   -0.9543 N   0  0  0  0  0  0  0  0  0  0  0  0
    0.6524   -0.9170   -2.0152 S   0  0  0  0  0  4  0  0  0  0  0  0
    1.2110   -2.2515   -2.4048 O   0  0  0  0  0  0  0  0  0  0  0  0
    1.7989   -0.2519   -0.7674 C   0  0  0  0  0  0  0  0  0  0  0  0
    2.7227   -1.0868   -0.1302 C   0  0  0  0  0  0  0  0  0  0  0  0
    3.6094   -0.5701    0.8207 C   0  0  0  0  0  0  0  0  0  0  0  0
    3.5718    0.7798    1.1732 C   0  0  0  0  0  0  0  0  0  0  0  0
    4.5372    1.3115    2.0324 N   0  0  0  0  0  0  0  0  0  0  0  0
    2.7065    1.6253    0.4770 C   0  0  0  0  0  0  0  0  0  0  0  0
    1.8175    1.1160   -0.4764 C   0  0  0  0  0  0  0  0  0  0  0  0
   -1.4239    0.1420   -0.7847 C   0  0  0  0  0  0  0  0  0  0  0  0
   -1.2122    1.1690   -1.6657 O   0  0  0  0  0  0  0  0  0  0  0  0
   -2.0366    2.2304   -1.3829 N   0  0  0  0  0  0  0  0  0  0  0  0
   -2.7544    1.8563   -0.3219 C   0  0  0  0  0  0  0  0  0  0  0  0
   -3.7586    2.7801    0.2574 C   0  0  0  0  0  0  0  0  0  0  0  0
   -2.3897    0.5524    0.1234 C   0  0  0  0  0  0  0  0  0  0  0  0
   -2.9238   -0.1360    1.3242 C   0  0  0  0  0  0  0  0  0  0  0  0
   -0.2940   -3.9552   -1.4916 H   0  0  0  0  0  0  0  0  0  0  0  0
   -0.7811   -4.1677    0.1958 H   0  0  0  0  0  0  0  0  0  0  0  0
    0.6559   -3.2263   -0.1391 H   0  0  0  0  0  0  0  0  0  0  0  0
    2.7804   -2.1431   -0.3834 H   0  0  0  0  0  0  0  0  0  0  0  0
    4.3373   -1.2353    1.2784 H   0  0  0  0  0  0  0  0  0  0  0  0
    4.2718    2.1910    2.4643 H   0  0  0  0  0  0  0  0  0  0  0  0
    4.9077    0.6472    2.7048 H   0  0  0  0  0  0  0  0  0  0  0  0
    2.7201    2.6962    0.6649 H   0  0  0  0  0  0  0  0  0  0  0  0
    1.1631    1.8105   -0.9971 H   0  0  0  0  0  0  0  0  0  0  0  0
   -3.3944    3.1905    1.2045 H   0  0  0  0  0  0  0  0  0  0  0  0
   -3.9726    3.6164   -0.4163 H   0  0  0  0  0  0  0  0  0  0  0  0
   -4.7001    2.2548    0.4474 H   0  0  0  0  0  0  0  0  0  0  0  0
   -3.1957    0.5889    2.0990 H   0  0  0  0  0  0  0  0  0  0  0  0
   -3.8223   -0.7081    1.0742 H   0  0  0  0  0  0  0  0  0  0  0  0
   -2.1805   -0.8066    1.7662 H   0  0  0  0  0  0  0  0  0  0  0  0
  1  2  1  0
  2  3  2  0
  2  4  1  0
  4  5  1  0
  5  6  2  0
  5  7  1  0
  7  8  2  0
  8  9  1  0
  9 10  2  0
 10 11  1  0
 10 12  1  0
 12 13  2  0
  4 14  1  0
 14 15  1  0
 15 16  1  0
 16 17  2  0
 17 18  1  0
 17 19  1  0
 19 20  1  0
 13  7  1  0
 19 14  2  0
  1 21  1  0
  1 22  1  0
  1 23  1  0
  8 24  1  0
  9 25  1  0
 11 26  1  0
 11 27  1  0
 12 28  1  0
 13 29  1  0
 18 30  1  0
 18 31  1  0
 18 32  1  0
 20 33  1  0
 20 34  1  0
 20 35  1  0
M  END
>  <Energy>  (2) 
22.268731897936114

>  <Real charge>  (2) 
0

>  <Mult>  (2) 
1

$$$$
mol_519 202
     RDKit          3D

 35 36  0  0  0  0  0  0  0  0999 V2000
   -1.0332    2.6700   -1.3282 C   0  0  0  0  0  0  0  0  0  0  0  0
   -0.5245    2.2378    0.0332 C   0  0  0  0  0  0  0  0  0  0  0  0
    0.0616    3.0647    0.7389 O   0  0  0  0  0  0  0  0  0  0  0  0
   -0.6928    0.8885    0.3616 N   0  0  0  0  0  0  0  0  0  0  0  0
    0.2395    0.3566    1.6678 S   0  0  0  0  0  4  0  0  0  0  0  0
   -0.0699   -1.0511    2.0791 O   0  0  0  0  0  0  0  0  0  0  0  0
    1.7925    0.2669    0.7286 C   0  0  0  0  0  0  0  0  0  0  0  0
    2.1636   -0.9070    0.0666 C   0  0  0  0  0  0  0  0  0  0  0  0
    3.3632   -0.9683   -0.6506 C   0  0  0  0  0  0  0  0  0  0  0  0
    4.2376    0.1195   -0.6737 C   0  0  0  0  0  0  0  0  0  0  0  0
    5.3710    0.0963   -1.4921 N   0  0  0  0  0  0  0  0  0  0  0  0
    3.8494    1.3016   -0.0410 C   0  0  0  0  0  0  0  0  0  0  0  0
    2.6523    1.3683    0.6801 C   0  0  0  0  0  0  0  0  0  0  0  0
   -1.9335    0.2982    0.1128 C   0  0  0  0  0  0  0  0  0  0  0  0
   -2.9812    1.1488   -0.1197 O   0  0  0  0  0  0  0  0  0  0  0  0
   -4.1471    0.4494   -0.3060 N   0  0  0  0  0  0  0  0  0  0  0  0
   -3.8161   -0.8375   -0.1935 C   0  0  0  0  0  0  0  0  0  0  0  0
   -4.8532   -1.8857   -0.3462 C   0  0  0  0  0  0  0  0  0  0  0  0
   -2.4193   -0.9995    0.0454 C   0  0  0  0  0  0  0  0  0  0  0  0
   -1.7129   -2.2987    0.1336 C   0  0  0  0  0  0  0  0  0  0  0  0
   -0.2758    3.3078   -1.7949 H   0  0  0  0  0  0  0  0  0  0  0  0
   -1.1947    1.8197   -1.9960 H   0  0  0  0  0  0  0  0  0  0  0  0
   -1.9573    3.2421   -1.2139 H   0  0  0  0  0  0  0  0  0  0  0  0
    1.5264   -1.7857    0.1024 H   0  0  0  0  0  0  0  0  0  0  0  0
    3.6118   -1.8813   -1.1856 H   0  0  0  0  0  0  0  0  0  0  0  0
    6.0875    0.7637   -1.2231 H   0  0  0  0  0  0  0  0  0  0  0  0
    5.7508   -0.8327   -1.6455 H   0  0  0  0  0  0  0  0  0  0  0  0
    4.4795    2.1858   -0.0974 H   0  0  0  0  0  0  0  0  0  0  0  0
    2.3992    2.2953    1.1904 H   0  0  0  0  0  0  0  0  0  0  0  0
   -4.7711   -2.6277    0.4545 H   0  0  0  0  0  0  0  0  0  0  0  0
   -5.8624   -1.4627   -0.3076 H   0  0  0  0  0  0  0  0  0  0  0  0
   -4.7355   -2.3985   -1.3061 H   0  0  0  0  0  0  0  0  0  0  0  0
   -1.7434   -2.6905    1.1542 H   0  0  0  0  0  0  0  0  0  0  0  0
   -0.6757   -2.2126   -0.1952 H   0  0  0  0  0  0  0  0  0  0  0  0
   -2.1859   -3.0414   -0.5183 H   0  0  0  0  0  0  0  0  0  0  0  0
  1  2  1  0
  2  3  2  0
  2  4  1  0
  4  5  1  0
  5  6  2  0
  5  7  1  0
  7  8  2  0
  8  9  1  0
  9 10  2  0
 10 11  1  0
 10 12  1  0
 12 13  2  0
  4 14  1  0
 14 15  1  0
 15 16  1  0
 16 17  2  0
 17 18  1  0
 17 19  1  0
 19 20  1  0
 13  7  1  0
 19 14  2  0
  1 21  1  0
  1 22  1  0
  1 23  1  0
  8 24  1  0
  9 25  1  0
 11 26  1  0
 11 27  1  0
 12 28  1  0
 13 29  1  0
 18 30  1  0
 18 31  1  0
 18 32  1  0
 20 33  1  0
 20 34  1  0
 20 35  1  0
M  END
>  <Energy>  (3) 
22.813416442250965

>  <Real charge>  (3) 
0

>  <Mult>  (3) 
1

$$$$
mol_519 325
     RDKit          3D

 35 36  0  0  0  0  0  0  0  0999 V2000
   -0.5446   -2.9961    0.4084 C   0  0  0  0  0  0  0  0  0  0  0  0
   -0.1072   -1.8295    1.2726 C   0  0  0  0  0  0  0  0  0  0  0  0
    0.6283   -2.0514    2.2395 O   0  0  0  0  0  0  0  0  0  0  0  0
   -0.5122   -0.5572    0.8565 N   0  0  0  0  0  0  0  0  0  0  0  0
    0.3057    0.7242    1.5969 S   0  0  0  0  0  4  0  0  0  0  0  0
   -0.2730    2.0650    1.2590 O   0  0  0  0  0  0  0  0  0  0  0  0
    1.8056    0.5607    0.5835 C   0  0  0  0  0  0  0  0  0  0  0  0
    1.9719    1.3188   -0.5792 C   0  0  0  0  0  0  0  0  0  0  0  0
    3.1352    1.1957   -1.3471 C   0  0  0  0  0  0  0  0  0  0  0  0
    4.1389    0.2962   -0.9844 C   0  0  0  0  0  0  0  0  0  0  0  0
    5.3463    0.2653   -1.6877 N   0  0  0  0  0  0  0  0  0  0  0  0
    4.0079   -0.3960    0.2205 C   0  0  0  0  0  0  0  0  0  0  0  0
    2.8476   -0.2764    0.9936 C   0  0  0  0  0  0  0  0  0  0  0  0
   -1.8342   -0.3836    0.4431 C   0  0  0  0  0  0  0  0  0  0  0  0
   -2.7220   -1.3645    0.7952 O   0  0  0  0  0  0  0  0  0  0  0  0
   -3.9884   -1.0540    0.3665 N   0  0  0  0  0  0  0  0  0  0  0  0
   -3.8794    0.1207   -0.2556 C   0  0  0  0  0  0  0  0  0  0  0  0
   -5.0777    0.7576   -0.8525 C   0  0  0  0  0  0  0  0  0  0  0  0
   -2.5309    0.5845   -0.2649 C   0  0  0  0  0  0  0  0  0  0  0  0
   -2.0511    1.8084   -0.9479 C   0  0  0  0  0  0  0  0  0  0  0  0
   -0.8535   -2.6756   -0.5900 H   0  0  0  0  0  0  0  0  0  0  0  0
    0.3073   -3.6717    0.2808 H   0  0  0  0  0  0  0  0  0  0  0  0
   -1.3559   -3.5383    0.9005 H   0  0  0  0  0  0  0  0  0  0  0  0
    1.2137    2.0347   -0.8839 H   0  0  0  0  0  0  0  0  0  0  0  0
    3.2527    1.8198   -2.2294 H   0  0  0  0  0  0  0  0  0  0  0  0
    5.2662    0.5281   -2.6648 H   0  0  0  0  0  0  0  0  0  0  0  0
    5.8799   -0.5890   -1.5598 H   0  0  0  0  0  0  0  0  0  0  0  0
    4.8131   -1.0343    0.5758 H   0  0  0  0  0  0  0  0  0  0  0  0
    2.7813   -0.8323    1.9266 H   0  0  0  0  0  0  0  0  0  0  0  0
   -5.1231    1.8182   -0.5852 H   0  0  0  0  0  0  0  0  0  0  0  0
   -5.0459    0.6772   -1.9436 H   0  0  0  0  0  0  0  0  0  0  0  0
   -6.0015    0.2850   -0.5028 H   0  0  0  0  0  0  0  0  0  0  0  0
   -2.1545    2.6831   -0.2996 H   0  0  0  0  0  0  0  0  0  0  0  0
   -2.6353    1.9995   -1.8547 H   0  0  0  0  0  0  0  0  0  0  0  0
   -1.0111    1.7071   -1.2634 H   0  0  0  0  0  0  0  0  0  0  0  0
  1  2  1  0
  2  3  2  0
  2  4  1  0
  4  5  1  0
  5  6  2  0
  5  7  1  0
  7  8  2  0
  8  9  1  0
  9 10  2  0
 10 11  1  0
 10 12  1  0
 12 13  2  0
  4 14  1  0
 14 15  1  0
 15 16  1  0
 16 17  2  0
 17 18  1  0
 17 19  1  0
 19 20  1  0
 13  7  1  0
 19 14  2  0
  1 21  1  0
  1 22  1  0
  1 23  1  0
  8 24  1  0
  9 25  1  0
 11 26  1  0
 11 27  1  0
 12 28  1  0
 13 29  1  0
 18 30  1  0
 18 31  1  0
 18 32  1  0
 20 33  1  0
 20 34  1  0
 20 35  1  0
M  END
>  <Energy>  (4) 
22.918731710924355

>  <Real charge>  (4) 
0

>  <Mult>  (4) 
1

$$$$
