mol_1038 418
     RDKit          3D

 33 35  0  0  0  0  0  0  0  0999 V2000
    2.3370   -1.9557   -0.0758 C   0  0  0  0  0  0  0  0  0  0  0  0
    1.0363   -2.2639    0.0055 C   0  0  0  0  0  0  0  0  0  0  0  0
    0.6696   -3.5788    0.2492 O   0  0  0  0  0  0  0  0  0  0  0  0
   -0.0525   -1.2296   -0.2186 C   0  0  0  0  0  0  0  0  0  0  0  0
   -1.2129   -1.4001    0.7550 C   0  0  0  0  0  0  0  0  0  0  0  0
   -1.5540   -2.5272    1.1443 O   0  0  0  0  0  0  0  0  0  0  0  0
   -2.0753   -0.1958    1.0785 C   0  0  0  0  0  0  0  0  0  0  0  0
   -3.1301   -0.0803   -0.0019 C   0  0  0  0  0  0  0  0  0  0  0  0
   -3.3663    1.0720   -0.6415 C   0  0  0  0  0  0  0  0  0  0  0  0
   -4.3160    1.2155   -1.6151 O   0  0  0  0  0  0  0  0  0  0  0  0
   -2.6459    2.2777   -0.3322 C   0  0  0  0  0  0  0  0  0  0  0  0
   -1.6538    2.2927    0.5698 C   0  0  0  0  0  0  0  0  0  0  0  0
   -1.2128    1.0615    1.3174 C   0  0  0  0  0  0  0  0  0  0  0  0
    0.1757    0.8554    1.0624 O   0  0  0  0  0  0  0  0  0  0  0  0
    0.4512    0.2277   -0.1915 C   0  0  0  0  0  0  0  0  0  0  0  0
    1.9299    0.4024   -0.4051 C   0  0  0  0  0  0  0  0  0  0  0  0
    2.8019   -0.6193   -0.3617 C   0  0  0  0  0  0  0  0  0  0  0  0
    4.1622   -0.5576   -0.5300 O   0  0  0  0  0  0  0  0  0  0  0  0
    4.7436    0.7187   -0.7632 C   0  0  0  0  0  0  0  0  0  0  0  0
    3.0876   -2.7283    0.0683 H   0  0  0  0  0  0  0  0  0  0  0  0
   -0.2515   -3.5877    0.5925 H   0  0  0  0  0  0  0  0  0  0  0  0
   -0.4610   -1.4251   -1.2202 H   0  0  0  0  0  0  0  0  0  0  0  0
   -2.6015   -0.4212    2.0164 H   0  0  0  0  0  0  0  0  0  0  0  0
   -3.7094   -0.9721   -0.2270 H   0  0  0  0  0  0  0  0  0  0  0  0
   -4.7796    0.3685   -1.7279 H   0  0  0  0  0  0  0  0  0  0  0  0
   -2.9339    3.1867   -0.8539 H   0  0  0  0  0  0  0  0  0  0  0  0
   -1.1285    3.2197    0.7820 H   0  0  0  0  0  0  0  0  0  0  0  0
   -1.2789    1.3089    2.3847 H   0  0  0  0  0  0  0  0  0  0  0  0
   -0.0490    0.7858   -0.9938 H   0  0  0  0  0  0  0  0  0  0  0  0
    2.2565    1.4205   -0.5811 H   0  0  0  0  0  0  0  0  0  0  0  0
    4.5694    1.3899    0.0841 H   0  0  0  0  0  0  0  0  0  0  0  0
    5.8241    0.5825   -0.8679 H   0  0  0  0  0  0  0  0  0  0  0  0
    4.3679    1.1565   -1.6938 H   0  0  0  0  0  0  0  0  0  0  0  0
  1  2  2  0
  2  3  1  0
  2  4  1  0
  4  5  1  0
  5  6  2  0
  5  7  1  0
  7  8  1  0
  8  9  2  0
  9 10  1  0
  9 11  1  0
 11 12  2  0
 12 13  1  0
 13 14  1  0
 14 15  1  0
 15 16  1  0
 16 17  2  0
 17 18  1  0
 18 19  1  0
 17  1  1  0
 15  4  1  0
 13  7  1  0
  1 20  1  0
  3 21  1  0
  4 22  1  0
  7 23  1  0
  8 24  1  0
 10 25  1  0
 11 26  1  0
 12 27  1  0
 13 28  1  0
 15 29  1  0
 16 30  1  0
 19 31  1  0
 19 32  1  0
 19 33  1  0
M  END
>  <Energy>  (1) 
13.915321148315956

>  <Real charge>  (1) 
0

>  <Mult>  (1) 
1

$$$$
mol_1038 239
     RDKit          3D

 33 35  0  0  0  0  0  0  0  0999 V2000
   -2.2367   -1.2605    1.3280 C   0  0  0  0  0  0  0  0  0  0  0  0
   -1.3751   -2.0154    0.6346 C   0  0  0  0  0  0  0  0  0  0  0  0
   -1.1176   -3.3136    1.0439 O   0  0  0  0  0  0  0  0  0  0  0  0
   -0.6725   -1.5122   -0.6042 C   0  0  0  0  0  0  0  0  0  0  0  0
    0.8163   -1.6663   -0.3727 C   0  0  0  0  0  0  0  0  0  0  0  0
    1.3312   -2.7797   -0.5553 O   0  0  0  0  0  0  0  0  0  0  0  0
    1.5757   -0.5222    0.2894 C   0  0  0  0  0  0  0  0  0  0  0  0
    3.0610   -0.6671    0.0183 C   0  0  0  0  0  0  0  0  0  0  0  0
    3.8180    0.3578   -0.3907 C   0  0  0  0  0  0  0  0  0  0  0  0
    5.1609    0.2565   -0.6340 O   0  0  0  0  0  0  0  0  0  0  0  0
    3.2734    1.6717   -0.5865 C   0  0  0  0  0  0  0  0  0  0  0  0
    1.9609    1.9090   -0.4577 C   0  0  0  0  0  0  0  0  0  0  0  0
    0.9626    0.8423   -0.0999 C   0  0  0  0  0  0  0  0  0  0  0  0
    0.1009    0.7459   -1.2353 O   0  0  0  0  0  0  0  0  0  0  0  0
   -1.0430   -0.0829   -1.0322 C   0  0  0  0  0  0  0  0  0  0  0  0
   -2.0314    0.6424   -0.1551 C   0  0  0  0  0  0  0  0  0  0  0  0
   -2.5753    0.0909    0.9437 C   0  0  0  0  0  0  0  0  0  0  0  0
   -3.4722    0.6722    1.8033 O   0  0  0  0  0  0  0  0  0  0  0  0
   -3.8943    2.0019    1.5261 C   0  0  0  0  0  0  0  0  0  0  0  0
   -2.7254   -1.6676    2.2099 H   0  0  0  0  0  0  0  0  0  0  0  0
   -0.4149   -3.7005    0.4809 H   0  0  0  0  0  0  0  0  0  0  0  0
   -0.9340   -2.1823   -1.4352 H   0  0  0  0  0  0  0  0  0  0  0  0
    1.4448   -0.6538    1.3725 H   0  0  0  0  0  0  0  0  0  0  0  0
    3.5014   -1.6467    0.1836 H   0  0  0  0  0  0  0  0  0  0  0  0
    5.4234   -0.6710   -0.5090 H   0  0  0  0  0  0  0  0  0  0  0  0
    3.9584    2.4690   -0.8601 H   0  0  0  0  0  0  0  0  0  0  0  0
    1.5779    2.9097   -0.6346 H   0  0  0  0  0  0  0  0  0  0  0  0
    0.3903    1.2259    0.7547 H   0  0  0  0  0  0  0  0  0  0  0  0
   -1.5219   -0.1539   -2.0178 H   0  0  0  0  0  0  0  0  0  0  0  0
   -2.2811    1.6491   -0.4714 H   0  0  0  0  0  0  0  0  0  0  0  0
   -3.0476    2.6955    1.5544 H   0  0  0  0  0  0  0  0  0  0  0  0
   -4.6005    2.3004    2.3066 H   0  0  0  0  0  0  0  0  0  0  0  0
   -4.4132    2.0556    0.5635 H   0  0  0  0  0  0  0  0  0  0  0  0
  1  2  2  0
  2  3  1  0
  2  4  1  0
  4  5  1  0
  5  6  2  0
  5  7  1  0
  7  8  1  0
  8  9  2  0
  9 10  1  0
  9 11  1  0
 11 12  2  0
 12 13  1  0
 13 14  1  0
 14 15  1  0
 15 16  1  0
 16 17  2  0
 17 18  1  0
 18 19  1  0
 17  1  1  0
 15  4  1  0
 13  7  1  0
  1 20  1  0
  3 21  1  0
  4 22  1  0
  7 23  1  0
  8 24  1  0
 10 25  1  0
 11 26  1  0
 12 27  1  0
 13 28  1  0
 15 29  1  0
 16 30  1  0
 19 31  1  0
 19 32  1  0
 19 33  1  0
M  END
>  <Energy>  (2) 
14.063756991337529

>  <Real charge>  (2) 
0

>  <Mult>  (2) 
1

$$$$
mol_1038 370
     RDKit          3D

 33 35  0  0  0  0  0  0  0  0999 V2000
    2.7126    0.1229   -1.4479 C   0  0  0  0  0  0  0  0  0  0  0  0
    1.4838    0.3273   -1.9485 C   0  0  0  0  0  0  0  0  0  0  0  0
    1.2473    0.1778   -3.3015 O   0  0  0  0  0  0  0  0  0  0  0  0
    0.3594    0.7495   -1.0313 C   0  0  0  0  0  0  0  0  0  0  0  0
   -1.0448    0.3546   -1.4407 C   0  0  0  0  0  0  0  0  0  0  0  0
   -1.2822   -0.0418   -2.5889 O   0  0  0  0  0  0  0  0  0  0  0  0
   -2.1630    0.6558   -0.4328 C   0  0  0  0  0  0  0  0  0  0  0  0
   -3.3210   -0.2767   -0.7278 C   0  0  0  0  0  0  0  0  0  0  0  0
   -3.6504   -1.2837    0.0917 C   0  0  0  0  0  0  0  0  0  0  0  0
   -4.6583   -2.1712   -0.1684 O   0  0  0  0  0  0  0  0  0  0  0  0
   -2.9448   -1.5287    1.3210 C   0  0  0  0  0  0  0  0  0  0  0  0
   -2.0380   -0.6595    1.7897 C   0  0  0  0  0  0  0  0  0  0  0  0
   -1.6902    0.6073    1.0519 C   0  0  0  0  0  0  0  0  0  0  0  0
   -0.3015    0.8931    1.2556 O   0  0  0  0  0  0  0  0  0  0  0  0
    0.5467    0.1650    0.3694 C   0  0  0  0  0  0  0  0  0  0  0  0
    1.9678    0.2864    0.8496 C   0  0  0  0  0  0  0  0  0  0  0  0
    2.9889    0.2720   -0.0301 C   0  0  0  0  0  0  0  0  0  0  0  0
    4.3297    0.3361    0.2477 O   0  0  0  0  0  0  0  0  0  0  0  0
    4.7125    0.4825    1.6094 C   0  0  0  0  0  0  0  0  0  0  0  0
    3.5344   -0.1582   -2.1000 H   0  0  0  0  0  0  0  0  0  0  0  0
    0.2786    0.0872   -3.4431 H   0  0  0  0  0  0  0  0  0  0  0  0
    0.3510    1.8490   -0.9977 H   0  0  0  0  0  0  0  0  0  0  0  0
   -2.4763    1.6867   -0.6452 H   0  0  0  0  0  0  0  0  0  0  0  0
   -3.8532   -0.1203   -1.6619 H   0  0  0  0  0  0  0  0  0  0  0  0
   -5.0404   -1.9573   -1.0364 H   0  0  0  0  0  0  0  0  0  0  0  0
   -3.1938   -2.4283    1.8775 H   0  0  0  0  0  0  0  0  0  0  0  0
   -1.5529   -0.8435    2.7439 H   0  0  0  0  0  0  0  0  0  0  0  0
   -2.2227    1.4061    1.5856 H   0  0  0  0  0  0  0  0  0  0  0  0
    0.2834   -0.9017    0.4096 H   0  0  0  0  0  0  0  0  0  0  0  0
    2.1222    0.3482    1.9195 H   0  0  0  0  0  0  0  0  0  0  0  0
    5.8046    0.5357    1.6483 H   0  0  0  0  0  0  0  0  0  0  0  0
    4.3964   -0.3834    2.2003 H   0  0  0  0  0  0  0  0  0  0  0  0
    4.3144    1.4111    2.0316 H   0  0  0  0  0  0  0  0  0  0  0  0
  1  2  2  0
  2  3  1  0
  2  4  1  0
  4  5  1  0
  5  6  2  0
  5  7  1  0
  7  8  1  0
  8  9  2  0
  9 10  1  0
  9 11  1  0
 11 12  2  0
 12 13  1  0
 13 14  1  0
 14 15  1  0
 15 16  1  0
 16 17  2  0
 17 18  1  0
 18 19  1  0
 17  1  1  0
 15  4  1  0
 13  7  1  0
  1 20  1  0
  3 21  1  0
  4 22  1  0
  7 23  1  0
  8 24  1  0
 10 25  1  0
 11 26  1  0
 12 27  1  0
 13 28  1  0
 15 29  1  0
 16 30  1  0
 19 31  1  0
 19 32  1  0
 19 33  1  0
M  END
>  <Energy>  (3) 
14.481074917079514

>  <Real charge>  (3) 
0

>  <Mult>  (3) 
1

$$$$
