mol_889 209
     RDKit          3D

 23 24  0  0  0  0  0  0  0  0999 V2000
    3.8475    0.4769    0.7522 N   0  0  0  0  0  0  0  0  0  0  0  0
    3.0551    0.1875   -0.6969 S   0  0  0  0  0  6  0  0  0  0  0  0
    3.6608   -0.9740   -1.2999 O   0  0  0  0  0  0  0  0  0  0  0  0
    3.0334    1.4686   -1.3660 O   0  0  0  0  0  0  0  0  0  0  0  0
    1.4124   -0.2084   -0.1861 C   0  0  0  0  0  0  0  0  0  0  0  0
    0.3667    0.6244   -0.6041 C   0  0  0  0  0  0  0  0  0  0  0  0
   -0.9453    0.3247   -0.2194 C   0  0  0  0  0  0  0  0  0  0  0  0
   -1.2532   -0.7838    0.5578 C   0  0  0  0  0  0  0  0  0  0  0  0
   -2.5415   -1.1726    0.9476 N   0  0  0  0  0  0  0  0  0  0  0  0
   -3.5927   -0.5782    0.5075 C   0  0  0  0  0  0  0  0  0  0  0  0
   -3.6039    0.5427   -0.3117 N   0  0  0  0  0  0  0  0  0  0  0  0
   -2.2393    1.3908   -0.6995 S   0  0  0  0  0  6  0  0  0  0  0  0
   -2.1838    2.5609    0.1458 O   0  0  0  0  0  0  0  0  0  0  0  0
   -2.2207    1.4878   -2.1421 O   0  0  0  0  0  0  0  0  0  0  0  0
   -0.1920   -1.6020    0.9652 C   0  0  0  0  0  0  0  0  0  0  0  0
    1.1360   -1.3265    0.6024 C   0  0  0  0  0  0  0  0  0  0  0  0
    2.3385   -2.4186    1.1877 Cl  0  0  0  0  0  0  0  0  0  0  0  0
    4.1931    1.4372    0.7757 H   0  0  0  0  0  0  0  0  0  0  0  0
    4.5740   -0.2260    0.8996 H   0  0  0  0  0  0  0  0  0  0  0  0
    0.5610    1.5036   -1.2181 H   0  0  0  0  0  0  0  0  0  0  0  0
   -4.5982   -0.9570    0.7531 H   0  0  0  0  0  0  0  0  0  0  0  0
   -4.3933    0.7185   -0.9268 H   0  0  0  0  0  0  0  0  0  0  0  0
   -0.4145   -2.4762    1.5761 H   0  0  0  0  0  0  0  0  0  0  0  0
  1  2  1  0
  2  3  2  0
  2  4  2  0
  2  5  1  0
  5  6  2  0
  6  7  1  0
  7  8  2  0
  8  9  1  0
  9 10  2  0
 10 11  1  0
 11 12  1  0
 12 13  2  0
 12 14  2  0
  8 15  1  0
 15 16  2  0
 16 17  1  0
 12  7  1  0
 16  5  1  0
  1 18  1  0
  1 19  1  0
  6 20  1  0
 10 21  1  0
 11 22  1  0
 15 23  1  0
M  END
>  <Energy>  (1) 
-210.30120587963071

>  <Real charge>  (1) 
0

>  <Mult>  (1) 
1

$$$$
mol_889 248
     RDKit          3D

 23 24  0  0  0  0  0  0  0  0999 V2000
    2.7807    1.4691    1.8150 N   0  0  0  0  0  0  0  0  0  0  0  0
    3.0713    0.1053    0.8703 S   0  0  0  0  0  6  0  0  0  0  0  0
    3.9660    0.5637   -0.1647 O   0  0  0  0  0  0  0  0  0  0  0  0
    3.4036   -0.9313    1.8175 O   0  0  0  0  0  0  0  0  0  0  0  0
    1.5109   -0.2755    0.1429 C   0  0  0  0  0  0  0  0  0  0  0  0
    0.3862    0.5036    0.4341 C   0  0  0  0  0  0  0  0  0  0  0  0
   -0.8414    0.1818   -0.1581 C   0  0  0  0  0  0  0  0  0  0  0  0
   -0.9884   -0.8933   -1.0245 C   0  0  0  0  0  0  0  0  0  0  0  0
   -2.1887   -1.2986   -1.6221 N   0  0  0  0  0  0  0  0  0  0  0  0
   -3.3148   -0.7557   -1.3235 C   0  0  0  0  0  0  0  0  0  0  0  0
   -3.4905    0.3224   -0.4659 N   0  0  0  0  0  0  0  0  0  0  0  0
   -2.2322    1.1797    0.1757 S   0  0  0  0  0  6  0  0  0  0  0  0
   -2.0893    2.4028   -0.5796 O   0  0  0  0  0  0  0  0  0  0  0  0
   -2.4340    1.1881    1.6078 O   0  0  0  0  0  0  0  0  0  0  0  0
    0.1513   -1.6569   -1.3043 C   0  0  0  0  0  0  0  0  0  0  0  0
    1.3966   -1.3590   -0.7305 C   0  0  0  0  0  0  0  0  0  0  0  0
    2.7179   -2.3855   -1.1544 Cl  0  0  0  0  0  0  0  0  0  0  0  0
    2.9750    1.2448    2.7933 H   0  0  0  0  0  0  0  0  0  0  0  0
    3.3475    2.2442    1.4639 H   0  0  0  0  0  0  0  0  0  0  0  0
    0.4449    1.3579    1.1051 H   0  0  0  0  0  0  0  0  0  0  0  0
   -4.2570   -1.1490   -1.7388 H   0  0  0  0  0  0  0  0  0  0  0  0
   -4.3732    0.4469    0.0216 H   0  0  0  0  0  0  0  0  0  0  0  0
    0.0577   -2.5056   -1.9809 H   0  0  0  0  0  0  0  0  0  0  0  0
  1  2  1  0
  2  3  2  0
  2  4  2  0
  2  5  1  0
  5  6  2  0
  6  7  1  0
  7  8  2  0
  8  9  1  0
  9 10  2  0
 10 11  1  0
 11 12  1  0
 12 13  2  0
 12 14  2  0
  8 15  1  0
 15 16  2  0
 16 17  1  0
 12  7  1  0
 16  5  1  0
  1 18  1  0
  1 19  1  0
  6 20  1  0
 10 21  1  0
 11 22  1  0
 15 23  1  0
M  END
>  <Energy>  (2) 
-210.22073285592475

>  <Real charge>  (2) 
0

>  <Mult>  (2) 
1

$$$$
mol_889 59
     RDKit          3D

 23 24  0  0  0  0  0  0  0  0999 V2000
    3.7752    0.1378    1.0361 N   0  0  0  0  0  0  0  0  0  0  0  0
    3.0659   -0.6523   -0.2624 S   0  0  0  0  0  6  0  0  0  0  0  0
    3.0089   -2.0396    0.1395 O   0  0  0  0  0  0  0  0  0  0  0  0
    3.7591   -0.2348   -1.4558 O   0  0  0  0  0  0  0  0  0  0  0  0
    1.4245   -0.0033   -0.2796 C   0  0  0  0  0  0  0  0  0  0  0  0
    0.3572   -0.8874   -0.0769 C   0  0  0  0  0  0  0  0  0  0  0  0
   -0.9542   -0.3984   -0.1013 C   0  0  0  0  0  0  0  0  0  0  0  0
   -1.2389    0.9430   -0.3179 C   0  0  0  0  0  0  0  0  0  0  0  0
   -2.5179    1.5143   -0.3197 N   0  0  0  0  0  0  0  0  0  0  0  0
   -3.5658    0.8370   -0.0114 C   0  0  0  0  0  0  0  0  0  0  0  0
   -3.5952   -0.5205    0.2783 N   0  0  0  0  0  0  0  0  0  0  0  0
   -2.2811   -1.5093    0.1151 S   0  0  0  0  0  6  0  0  0  0  0  0
   -2.4356   -2.2588   -1.1100 O   0  0  0  0  0  0  0  0  0  0  0  0
   -2.1057   -2.1617    1.3937 O   0  0  0  0  0  0  0  0  0  0  0  0
   -0.1568    1.8079   -0.5245 C   0  0  0  0  0  0  0  0  0  0  0  0
    1.1702    1.3498   -0.5088 C   0  0  0  0  0  0  0  0  0  0  0  0
    2.3995    2.5361   -0.7599 Cl  0  0  0  0  0  0  0  0  0  0  0  0
    4.0724   -0.5426    1.7369 H   0  0  0  0  0  0  0  0  0  0  0  0
    4.5289    0.7429    0.7052 H   0  0  0  0  0  0  0  0  0  0  0  0
    0.5332   -1.9498    0.0906 H   0  0  0  0  0  0  0  0  0  0  0  0
   -4.5504    1.3267    0.0632 H   0  0  0  0  0  0  0  0  0  0  0  0
   -4.3324   -0.9014    0.8646 H   0  0  0  0  0  0  0  0  0  0  0  0
   -0.3611    2.8644   -0.6951 H   0  0  0  0  0  0  0  0  0  0  0  0
  1  2  1  0
  2  3  2  0
  2  4  2  0
  2  5  1  0
  5  6  2  0
  6  7  1  0
  7  8  2  0
  8  9  1  0
  9 10  2  0
 10 11  1  0
 11 12  1  0
 12 13  2  0
 12 14  2  0
  8 15  1  0
 15 16  2  0
 16 17  1  0
 12  7  1  0
 16  5  1  0
  1 18  1  0
  1 19  1  0
  6 20  1  0
 10 21  1  0
 11 22  1  0
 15 23  1  0
M  END
>  <Energy>  (3) 
-210.18850311748764

>  <Real charge>  (3) 
0

>  <Mult>  (3) 
1

$$$$
