mol_33 363
     RDKit          3D

 38 39  0  0  0  0  0  0  0  0999 V2000
    7.3650   -0.5236    1.4829 C   0  0  0  0  0  0  0  0  0  0  0  0
    5.9582   -0.6339    1.2606 O   0  0  0  0  0  0  0  0  0  0  0  0
    5.5296   -0.0451    0.1103 C   0  0  0  0  0  0  0  0  0  0  0  0
    6.2671    0.5258   -0.6779 O   0  0  0  0  0  0  0  0  0  0  0  0
    4.1784   -0.2218    0.0271 N   0  0  0  0  0  0  0  0  0  0  0  0
    3.2962    0.2209   -0.9729 C   0  0  0  0  0  0  0  0  0  0  0  0
    3.6964    0.9618   -2.0891 C   0  0  0  0  0  0  0  0  0  0  0  0
    2.7603    1.3700   -3.0467 C   0  0  0  0  0  0  0  0  0  0  0  0
    1.4152    1.0452   -2.8946 C   0  0  0  0  0  0  0  0  0  0  0  0
    1.0156    0.3223   -1.7746 C   0  0  0  0  0  0  0  0  0  0  0  0
   -0.3422   -0.0301   -1.6950 O   0  0  0  0  0  0  0  0  0  0  0  0
   -1.0309    0.2769   -0.5221 C   0  0  0  0  0  0  0  0  0  0  0  0
   -0.5430    0.8540    0.4387 O   0  0  0  0  0  0  0  0  0  0  0  0
   -2.3152   -0.1830   -0.6566 N   0  0  0  0  0  0  0  0  0  0  0  0
   -3.3737   -0.1026    0.2648 C   0  0  0  0  0  0  0  0  0  0  0  0
   -3.2685    0.4988    1.5190 C   0  0  0  0  0  0  0  0  0  0  0  0
   -4.3723    0.5431    2.3750 C   0  0  0  0  0  0  0  0  0  0  0  0
   -5.5881   -0.0170    1.9864 C   0  0  0  0  0  0  0  0  0  0  0  0
   -5.7096   -0.6368    0.7399 C   0  0  0  0  0  0  0  0  0  0  0  0
   -7.0244   -1.2109    0.3017 C   0  0  0  0  0  0  0  0  0  0  0  0
   -4.6004   -0.6633   -0.1189 C   0  0  0  0  0  0  0  0  0  0  0  0
    1.9439   -0.1082   -0.8246 C   0  0  0  0  0  0  0  0  0  0  0  0
    7.5981   -1.0229    2.4275 H   0  0  0  0  0  0  0  0  0  0  0  0
    7.9203   -1.0220    0.6822 H   0  0  0  0  0  0  0  0  0  0  0  0
    7.6596    0.5273    1.5656 H   0  0  0  0  0  0  0  0  0  0  0  0
    3.7914   -0.7300    0.8100 H   0  0  0  0  0  0  0  0  0  0  0  0
    4.7346    1.2403   -2.2448 H   0  0  0  0  0  0  0  0  0  0  0  0
    3.0890    1.9422   -3.9107 H   0  0  0  0  0  0  0  0  0  0  0  0
    0.6900    1.3562   -3.6402 H   0  0  0  0  0  0  0  0  0  0  0  0
   -2.4972   -0.6347   -1.5416 H   0  0  0  0  0  0  0  0  0  0  0  0
   -2.3429    0.9499    1.8626 H   0  0  0  0  0  0  0  0  0  0  0  0
   -4.2802    1.0209    3.3473 H   0  0  0  0  0  0  0  0  0  0  0  0
   -6.4382    0.0341    2.6631 H   0  0  0  0  0  0  0  0  0  0  0  0
   -6.8736   -2.0695   -0.3610 H   0  0  0  0  0  0  0  0  0  0  0  0
   -7.6060   -0.4510   -0.2292 H   0  0  0  0  0  0  0  0  0  0  0  0
   -7.6038   -1.5631    1.1617 H   0  0  0  0  0  0  0  0  0  0  0  0
   -4.7052   -1.1297   -1.0959 H   0  0  0  0  0  0  0  0  0  0  0  0
    1.6068   -0.6906    0.0277 H   0  0  0  0  0  0  0  0  0  0  0  0
  1  2  1  0
  2  3  1  0
  3  4  2  0
  3  5  1  0
  5  6  1  0
  6  7  2  0
  7  8  1  0
  8  9  2  0
  9 10  1  0
 10 11  1  0
 11 12  1  0
 12 13  2  0
 12 14  1  0
 14 15  1  0
 15 16  2  0
 16 17  1  0
 17 18  2  0
 18 19  1  0
 19 20  1  0
 19 21  2  0
 10 22  2  0
 22  6  1  0
 21 15  1  0
  1 23  1  0
  1 24  1  0
  1 25  1  0
  5 26  1  0
  7 27  1  0
  8 28  1  0
  9 29  1  0
 14 30  1  0
 16 31  1  0
 17 32  1  0
 18 33  1  0
 20 34  1  0
 20 35  1  0
 20 36  1  0
 21 37  1  0
 22 38  1  0
M  END
>  <Energy>  (1) 
-40.46505095251047

>  <Real charge>  (1) 
0

>  <Mult>  (1) 
1

$$$$
mol_33 204
     RDKit          3D

 38 39  0  0  0  0  0  0  0  0999 V2000
    6.7159    1.8744    2.2065 C   0  0  0  0  0  0  0  0  0  0  0  0
    5.3939    1.3634    2.0288 O   0  0  0  0  0  0  0  0  0  0  0  0
    5.1877    0.7623    0.8247 C   0  0  0  0  0  0  0  0  0  0  0  0
    6.0455    0.6536   -0.0376 O   0  0  0  0  0  0  0  0  0  0  0  0
    3.8940    0.3275    0.7892 N   0  0  0  0  0  0  0  0  0  0  0  0
    3.2205   -0.3367   -0.2498 C   0  0  0  0  0  0  0  0  0  0  0  0
    3.8094   -0.6576   -1.4766 C   0  0  0  0  0  0  0  0  0  0  0  0
    3.0760   -1.3210   -2.4676 C   0  0  0  0  0  0  0  0  0  0  0  0
    1.7461   -1.6655   -2.2425 C   0  0  0  0  0  0  0  0  0  0  0  0
    1.1562   -1.3306   -1.0275 C   0  0  0  0  0  0  0  0  0  0  0  0
   -0.1696   -1.7499   -0.8259 O   0  0  0  0  0  0  0  0  0  0  0  0
   -1.1026   -0.7970   -0.4185 C   0  0  0  0  0  0  0  0  0  0  0  0
   -0.8546    0.3873   -0.2450 O   0  0  0  0  0  0  0  0  0  0  0  0
   -2.3066   -1.4316   -0.2552 N   0  0  0  0  0  0  0  0  0  0  0  0
   -3.5380   -0.8838    0.1443 C   0  0  0  0  0  0  0  0  0  0  0  0
   -4.6250   -1.7605    0.2417 C   0  0  0  0  0  0  0  0  0  0  0  0
   -5.8832   -1.2932    0.6256 C   0  0  0  0  0  0  0  0  0  0  0  0
   -6.0661    0.0560    0.9201 C   0  0  0  0  0  0  0  0  0  0  0  0
   -4.9894    0.9447    0.8422 C   0  0  0  0  0  0  0  0  0  0  0  0
   -5.1868    2.4056    1.1239 C   0  0  0  0  0  0  0  0  0  0  0  0
   -3.7304    0.4680    0.4409 C   0  0  0  0  0  0  0  0  0  0  0  0
    1.8845   -0.6881   -0.0243 C   0  0  0  0  0  0  0  0  0  0  0  0
    6.9356    2.6406    1.4564 H   0  0  0  0  0  0  0  0  0  0  0  0
    6.7700    2.3351    3.1968 H   0  0  0  0  0  0  0  0  0  0  0  0
    7.4499    1.0637    2.1620 H   0  0  0  0  0  0  0  0  0  0  0  0
    3.3766    0.5387    1.6310 H   0  0  0  0  0  0  0  0  0  0  0  0
    4.8425   -0.4039   -1.6956 H   0  0  0  0  0  0  0  0  0  0  0  0
    3.5505   -1.5665   -3.4145 H   0  0  0  0  0  0  0  0  0  0  0  0
    1.1790   -2.1856   -3.0084 H   0  0  0  0  0  0  0  0  0  0  0  0
   -2.2766   -2.4217   -0.4530 H   0  0  0  0  0  0  0  0  0  0  0  0
   -4.5108   -2.8176    0.0172 H   0  0  0  0  0  0  0  0  0  0  0  0
   -6.7220   -1.9813    0.6922 H   0  0  0  0  0  0  0  0  0  0  0  0
   -7.0525    0.4106    1.2106 H   0  0  0  0  0  0  0  0  0  0  0  0
   -4.2859    2.8420    1.5679 H   0  0  0  0  0  0  0  0  0  0  0  0
   -5.4191    2.9372    0.1960 H   0  0  0  0  0  0  0  0  0  0  0  0
   -6.0058    2.5606    1.8341 H   0  0  0  0  0  0  0  0  0  0  0  0
   -2.9136    1.1802    0.3665 H   0  0  0  0  0  0  0  0  0  0  0  0
    1.4049   -0.4595    0.9227 H   0  0  0  0  0  0  0  0  0  0  0  0
  1  2  1  0
  2  3  1  0
  3  4  2  0
  3  5  1  0
  5  6  1  0
  6  7  2  0
  7  8  1  0
  8  9  2  0
  9 10  1  0
 10 11  1  0
 11 12  1  0
 12 13  2  0
 12 14  1  0
 14 15  1  0
 15 16  2  0
 16 17  1  0
 17 18  2  0
 18 19  1  0
 19 20  1  0
 19 21  2  0
 10 22  2  0
 22  6  1  0
 21 15  1  0
  1 23  1  0
  1 24  1  0
  1 25  1  0
  5 26  1  0
  7 27  1  0
  8 28  1  0
  9 29  1  0
 14 30  1  0
 16 31  1  0
 17 32  1  0
 18 33  1  0
 20 34  1  0
 20 35  1  0
 20 36  1  0
 21 37  1  0
 22 38  1  0
M  END
>  <Energy>  (2) 
-40.43531407107729

>  <Real charge>  (2) 
0

>  <Mult>  (2) 
1

$$$$
mol_33 174
     RDKit          3D

 38 39  0  0  0  0  0  0  0  0999 V2000
    6.4611   -0.2213    3.2782 C   0  0  0  0  0  0  0  0  0  0  0  0
    5.1834    0.0833    2.7169 O   0  0  0  0  0  0  0  0  0  0  0  0
    5.0865   -0.1749    1.3837 C   0  0  0  0  0  0  0  0  0  0  0  0
    6.0009   -0.6210    0.7084 O   0  0  0  0  0  0  0  0  0  0  0  0
    3.8239    0.1561    0.9833 N   0  0  0  0  0  0  0  0  0  0  0  0
    3.2544    0.0517   -0.2970 C   0  0  0  0  0  0  0  0  0  0  0  0
    3.9355   -0.4474   -1.4115 C   0  0  0  0  0  0  0  0  0  0  0  0
    3.3033   -0.5226   -2.6584 C   0  0  0  0  0  0  0  0  0  0  0  0
    1.9834   -0.1038   -2.8012 C   0  0  0  0  0  0  0  0  0  0  0  0
    1.3014    0.3770   -1.6876 C   0  0  0  0  0  0  0  0  0  0  0  0
   -0.0088    0.8407   -1.8940 O   0  0  0  0  0  0  0  0  0  0  0  0
   -1.0173    0.3408   -1.0709 C   0  0  0  0  0  0  0  0  0  0  0  0
   -0.8473   -0.4927   -0.1932 O   0  0  0  0  0  0  0  0  0  0  0  0
   -2.1917    0.9506   -1.4285 N   0  0  0  0  0  0  0  0  0  0  0  0
   -3.4745    0.7677   -0.8838 C   0  0  0  0  0  0  0  0  0  0  0  0
   -4.5147    1.5281   -1.4311 C   0  0  0  0  0  0  0  0  0  0  0  0
   -5.8163    1.4100   -0.9404 C   0  0  0  0  0  0  0  0  0  0  0  0
   -6.0918    0.5256    0.1000 C   0  0  0  0  0  0  0  0  0  0  0  0
   -5.0692   -0.2543    0.6490 C   0  0  0  0  0  0  0  0  0  0  0  0
   -5.3525   -1.1862    1.7908 C   0  0  0  0  0  0  0  0  0  0  0  0
   -3.7598   -0.1174    0.1590 C   0  0  0  0  0  0  0  0  0  0  0  0
    1.9288    0.4763   -0.4442 C   0  0  0  0  0  0  0  0  0  0  0  0
    7.2408    0.3887    2.8112 H   0  0  0  0  0  0  0  0  0  0  0  0
    6.6838   -1.2875    3.1705 H   0  0  0  0  0  0  0  0  0  0  0  0
    6.4277    0.0183    4.3447 H   0  0  0  0  0  0  0  0  0  0  0  0
    3.2442    0.5063    1.7331 H   0  0  0  0  0  0  0  0  0  0  0  0
    4.9643   -0.7887   -1.3439 H   0  0  0  0  0  0  0  0  0  0  0  0
    3.8487   -0.9097   -3.5156 H   0  0  0  0  0  0  0  0  0  0  0  0
    1.4950   -0.1561   -3.7694 H   0  0  0  0  0  0  0  0  0  0  0  0
   -2.0942    1.6129   -2.1851 H   0  0  0  0  0  0  0  0  0  0  0  0
   -4.3280    2.2259   -2.2431 H   0  0  0  0  0  0  0  0  0  0  0  0
   -6.6155    2.0097   -1.3683 H   0  0  0  0  0  0  0  0  0  0  0  0
   -7.1083    0.4463    0.4790 H   0  0  0  0  0  0  0  0  0  0  0  0
   -6.3889   -1.5388    1.7612 H   0  0  0  0  0  0  0  0  0  0  0  0
   -5.1812   -0.6741    2.7426 H   0  0  0  0  0  0  0  0  0  0  0  0
   -4.7080   -2.0702    1.7413 H   0  0  0  0  0  0  0  0  0  0  0  0
   -2.9783   -0.7206    0.6122 H   0  0  0  0  0  0  0  0  0  0  0  0
    1.3792    0.8768    0.4023 H   0  0  0  0  0  0  0  0  0  0  0  0
  1  2  1  0
  2  3  1  0
  3  4  2  0
  3  5  1  0
  5  6  1  0
  6  7  2  0
  7  8  1  0
  8  9  2  0
  9 10  1  0
 10 11  1  0
 11 12  1  0
 12 13  2  0
 12 14  1  0
 14 15  1  0
 15 16  2  0
 16 17  1  0
 17 18  2  0
 18 19  1  0
 19 20  1  0
 19 21  2  0
 10 22  2  0
 22  6  1  0
 21 15  1  0
  1 23  1  0
  1 24  1  0
  1 25  1  0
  5 26  1  0
  7 27  1  0
  8 28  1  0
  9 29  1  0
 14 30  1  0
 16 31  1  0
 17 32  1  0
 18 33  1  0
 20 34  1  0
 20 35  1  0
 20 36  1  0
 21 37  1  0
 22 38  1  0
M  END
>  <Energy>  (3) 
-40.430378283811876

>  <Real charge>  (3) 
0

>  <Mult>  (3) 
1

$$$$
mol_33 349
     RDKit          3D

 38 39  0  0  0  0  0  0  0  0999 V2000
   -6.9322    1.9531    0.8266 C   0  0  0  0  0  0  0  0  0  0  0  0
   -6.4532    0.9421   -0.0618 O   0  0  0  0  0  0  0  0  0  0  0  0
   -5.1401    0.6274    0.1116 C   0  0  0  0  0  0  0  0  0  0  0  0
   -4.4198    1.1467    0.9498 O   0  0  0  0  0  0  0  0  0  0  0  0
   -4.8178   -0.3408   -0.7959 N   0  0  0  0  0  0  0  0  0  0  0  0
   -3.5788   -0.9712   -0.9999 C   0  0  0  0  0  0  0  0  0  0  0  0
   -3.5177   -1.9562   -1.9969 C   0  0  0  0  0  0  0  0  0  0  0  0
   -2.3257   -2.6398   -2.2581 C   0  0  0  0  0  0  0  0  0  0  0  0
   -1.1788   -2.3411   -1.5287 C   0  0  0  0  0  0  0  0  0  0  0  0
   -1.2370   -1.3455   -0.5563 C   0  0  0  0  0  0  0  0  0  0  0  0
   -0.1211   -1.0430    0.2388 O   0  0  0  0  0  0  0  0  0  0  0  0
    1.0069   -0.5598   -0.4210 C   0  0  0  0  0  0  0  0  0  0  0  0
    1.0852   -0.3819   -1.6281 O   0  0  0  0  0  0  0  0  0  0  0  0
    1.9776   -0.3339    0.5204 N   0  0  0  0  0  0  0  0  0  0  0  0
    3.2839    0.1491    0.3322 C   0  0  0  0  0  0  0  0  0  0  0  0
    3.8160    0.4867   -0.9122 C   0  0  0  0  0  0  0  0  0  0  0  0
    5.1245    0.9666   -1.0134 C   0  0  0  0  0  0  0  0  0  0  0  0
    5.9131    1.1086    0.1272 C   0  0  0  0  0  0  0  0  0  0  0  0
    5.4032    0.7618    1.3813 C   0  0  0  0  0  0  0  0  0  0  0  0
    6.2341    0.9449    2.6167 C   0  0  0  0  0  0  0  0  0  0  0  0
    4.0835    0.2949    1.4749 C   0  0  0  0  0  0  0  0  0  0  0  0
   -2.4270   -0.6721   -0.2719 C   0  0  0  0  0  0  0  0  0  0  0  0
   -6.8522    1.6199    1.8661 H   0  0  0  0  0  0  0  0  0  0  0  0
   -6.3853    2.8889    0.6743 H   0  0  0  0  0  0  0  0  0  0  0  0
   -7.9875    2.1293    0.6007 H   0  0  0  0  0  0  0  0  0  0  0  0
   -5.5937   -0.6149   -1.3815 H   0  0  0  0  0  0  0  0  0  0  0  0
   -4.3983   -2.2082   -2.5828 H   0  0  0  0  0  0  0  0  0  0  0  0
   -2.2935   -3.4029   -3.0314 H   0  0  0  0  0  0  0  0  0  0  0  0
   -0.2520   -2.8708   -1.7274 H   0  0  0  0  0  0  0  0  0  0  0  0
    1.6860   -0.5453    1.4642 H   0  0  0  0  0  0  0  0  0  0  0  0
    3.2379    0.3941   -1.8264 H   0  0  0  0  0  0  0  0  0  0  0  0
    5.5257    1.2333   -1.9881 H   0  0  0  0  0  0  0  0  0  0  0  0
    6.9265    1.4913    0.0295 H   0  0  0  0  0  0  0  0  0  0  0  0
    7.2996    0.8276    2.3927 H   0  0  0  0  0  0  0  0  0  0  0  0
    5.9777    0.1963    3.3737 H   0  0  0  0  0  0  0  0  0  0  0  0
    6.0685    1.9428    3.0343 H   0  0  0  0  0  0  0  0  0  0  0  0
    3.6838    0.0449    2.4551 H   0  0  0  0  0  0  0  0  0  0  0  0
   -2.4222    0.0774    0.5117 H   0  0  0  0  0  0  0  0  0  0  0  0
  1  2  1  0
  2  3  1  0
  3  4  2  0
  3  5  1  0
  5  6  1  0
  6  7  2  0
  7  8  1  0
  8  9  2  0
  9 10  1  0
 10 11  1  0
 11 12  1  0
 12 13  2  0
 12 14  1  0
 14 15  1  0
 15 16  2  0
 16 17  1  0
 17 18  2  0
 18 19  1  0
 19 20  1  0
 19 21  2  0
 10 22  2  0
 22  6  1  0
 21 15  1  0
  1 23  1  0
  1 24  1  0
  1 25  1  0
  5 26  1  0
  7 27  1  0
  8 28  1  0
  9 29  1  0
 14 30  1  0
 16 31  1  0
 17 32  1  0
 18 33  1  0
 20 34  1  0
 20 35  1  0
 20 36  1  0
 21 37  1  0
 22 38  1  0
M  END
>  <Energy>  (4) 
-40.39964884078085

>  <Real charge>  (4) 
0

>  <Mult>  (4) 
1

$$$$
mol_33 105
     RDKit          3D

 38 39  0  0  0  0  0  0  0  0999 V2000
    6.9324   -2.1180    0.2187 C   0  0  0  0  0  0  0  0  0  0  0  0
    6.3239   -0.9936    0.8562 O   0  0  0  0  0  0  0  0  0  0  0  0
    5.0806   -0.6957    0.3884 C   0  0  0  0  0  0  0  0  0  0  0  0
    4.5198   -1.3176   -0.5002 O   0  0  0  0  0  0  0  0  0  0  0  0
    4.6208    0.3877    1.0809 N   0  0  0  0  0  0  0  0  0  0  0  0
    3.3874    1.0486    0.9532 C   0  0  0  0  0  0  0  0  0  0  0  0
    3.1668    2.1587    1.7819 C   0  0  0  0  0  0  0  0  0  0  0  0
    1.9702    2.8796    1.7122 C   0  0  0  0  0  0  0  0  0  0  0  0
    0.9775    2.4941    0.8164 C   0  0  0  0  0  0  0  0  0  0  0  0
    1.1902    1.3768    0.0122 C   0  0  0  0  0  0  0  0  0  0  0  0
    0.2404    0.9786   -0.9408 O   0  0  0  0  0  0  0  0  0  0  0  0
   -1.0089    0.5943   -0.4582 C   0  0  0  0  0  0  0  0  0  0  0  0
   -1.3247    0.5786    0.7228 O   0  0  0  0  0  0  0  0  0  0  0  0
   -1.7857    0.2521   -1.5348 N   0  0  0  0  0  0  0  0  0  0  0  0
   -3.1186   -0.1934   -1.5476 C   0  0  0  0  0  0  0  0  0  0  0  0
   -3.6835   -0.4812   -2.7956 C   0  0  0  0  0  0  0  0  0  0  0  0
   -5.0003   -0.9344   -2.8928 C   0  0  0  0  0  0  0  0  0  0  0  0
   -5.7675   -1.1002   -1.7419 C   0  0  0  0  0  0  0  0  0  0  0  0
   -5.2257   -0.8041   -0.4872 C   0  0  0  0  0  0  0  0  0  0  0  0
   -6.0343   -1.0135    0.7596 C   0  0  0  0  0  0  0  0  0  0  0  0
   -3.8950   -0.3627   -0.3984 C   0  0  0  0  0  0  0  0  0  0  0  0
    2.3896    0.6628    0.0578 C   0  0  0  0  0  0  0  0  0  0  0  0
    6.3355   -3.0210    0.3809 H   0  0  0  0  0  0  0  0  0  0  0  0
    7.0667   -1.9266   -0.8506 H   0  0  0  0  0  0  0  0  0  0  0  0
    7.9174   -2.2697    0.6688 H   0  0  0  0  0  0  0  0  0  0  0  0
    5.2770    0.7324    1.7670 H   0  0  0  0  0  0  0  0  0  0  0  0
    3.9247    2.4806    2.4919 H   0  0  0  0  0  0  0  0  0  0  0  0
    1.8139    3.7397    2.3581 H   0  0  0  0  0  0  0  0  0  0  0  0
    0.0478    3.0522    0.7581 H   0  0  0  0  0  0  0  0  0  0  0  0
   -1.3098    0.3354   -2.4221 H   0  0  0  0  0  0  0  0  0  0  0  0
   -3.1070   -0.3618   -3.7091 H   0  0  0  0  0  0  0  0  0  0  0  0
   -5.4269   -1.1614   -3.8664 H   0  0  0  0  0  0  0  0  0  0  0  0
   -6.7897   -1.4615   -1.8285 H   0  0  0  0  0  0  0  0  0  0  0  0
   -5.8571   -2.0180    1.1558 H   0  0  0  0  0  0  0  0  0  0  0  0
   -7.1042   -0.8976    0.5569 H   0  0  0  0  0  0  0  0  0  0  0  0
   -5.7679   -0.2770    1.5250 H   0  0  0  0  0  0  0  0  0  0  0  0
   -3.4879   -0.1585    0.5878 H   0  0  0  0  0  0  0  0  0  0  0  0
    2.5121   -0.1849   -0.6073 H   0  0  0  0  0  0  0  0  0  0  0  0
  1  2  1  0
  2  3  1  0
  3  4  2  0
  3  5  1  0
  5  6  1  0
  6  7  2  0
  7  8  1  0
  8  9  2  0
  9 10  1  0
 10 11  1  0
 11 12  1  0
 12 13  2  0
 12 14  1  0
 14 15  1  0
 15 16  2  0
 16 17  1  0
 17 18  2  0
 18 19  1  0
 19 20  1  0
 19 21  2  0
 10 22  2  0
 22  6  1  0
 21 15  1  0
  1 23  1  0
  1 24  1  0
  1 25  1  0
  5 26  1  0
  7 27  1  0
  8 28  1  0
  9 29  1  0
 14 30  1  0
 16 31  1  0
 17 32  1  0
 18 33  1  0
 20 34  1  0
 20 35  1  0
 20 36  1  0
 21 37  1  0
 22 38  1  0
M  END
>  <Energy>  (5) 
-40.36573826408665

>  <Real charge>  (5) 
0

>  <Mult>  (5) 
1

$$$$
mol_33 291
     RDKit          3D

 38 39  0  0  0  0  0  0  0  0999 V2000
    6.9869   -1.9581   -0.3043 C   0  0  0  0  0  0  0  0  0  0  0  0
    6.4019   -0.7184   -0.7065 O   0  0  0  0  0  0  0  0  0  0  0  0
    5.1221   -0.5431   -0.2769 C   0  0  0  0  0  0  0  0  0  0  0  0
    4.5122   -1.3577    0.3980 O   0  0  0  0  0  0  0  0  0  0  0  0
    4.6901    0.6702   -0.7308 N   0  0  0  0  0  0  0  0  0  0  0  0
    3.4368    1.2779   -0.5459 C   0  0  0  0  0  0  0  0  0  0  0  0
    3.2526    2.5501   -1.1076 C   0  0  0  0  0  0  0  0  0  0  0  0
    2.0389    3.2298   -0.9621 C   0  0  0  0  0  0  0  0  0  0  0  0
    0.9927    2.6415   -0.2579 C   0  0  0  0  0  0  0  0  0  0  0  0
    1.1708    1.3681    0.2777 C   0  0  0  0  0  0  0  0  0  0  0  0
    0.1637    0.7542    1.0377 O   0  0  0  0  0  0  0  0  0  0  0  0
   -1.0393    0.4886    0.3867 C   0  0  0  0  0  0  0  0  0  0  0  0
   -1.2689    0.7484   -0.7856 O   0  0  0  0  0  0  0  0  0  0  0  0
   -1.8840   -0.0992    1.2926 N   0  0  0  0  0  0  0  0  0  0  0  0
   -3.2041   -0.5415    1.1010 C   0  0  0  0  0  0  0  0  0  0  0  0
   -3.8509   -1.1160    2.2016 C   0  0  0  0  0  0  0  0  0  0  0  0
   -5.1658   -1.5726    2.0951 C   0  0  0  0  0  0  0  0  0  0  0  0
   -5.8460   -1.4636    0.8843 C   0  0  0  0  0  0  0  0  0  0  0  0
   -5.2117   -0.9068   -0.2306 C   0  0  0  0  0  0  0  0  0  0  0  0
   -5.9483   -0.7571   -1.5296 C   0  0  0  0  0  0  0  0  0  0  0  0
   -3.8936   -0.4364   -0.1097 C   0  0  0  0  0  0  0  0  0  0  0  0
    2.3855    0.6894    0.1576 C   0  0  0  0  0  0  0  0  0  0  0  0
    8.0048   -1.9964   -0.7021 H   0  0  0  0  0  0  0  0  0  0  0  0
    6.4228   -2.8006   -0.7165 H   0  0  0  0  0  0  0  0  0  0  0  0
    7.0398   -2.0212    0.7872 H   0  0  0  0  0  0  0  0  0  0  0  0
    5.3864    1.1684   -1.2666 H   0  0  0  0  0  0  0  0  0  0  0  0
    4.0527    3.0321   -1.6641 H   0  0  0  0  0  0  0  0  0  0  0  0
    1.9111    4.2164   -1.3999 H   0  0  0  0  0  0  0  0  0  0  0  0
    0.0494    3.1668   -0.1413 H   0  0  0  0  0  0  0  0  0  0  0  0
   -1.4746   -0.2251    2.2076 H   0  0  0  0  0  0  0  0  0  0  0  0
   -3.3434   -1.2135    3.1576 H   0  0  0  0  0  0  0  0  0  0  0  0
   -5.6605   -2.0119    2.9575 H   0  0  0  0  0  0  0  0  0  0  0  0
   -6.8724   -1.8166    0.8142 H   0  0  0  0  0  0  0  0  0  0  0  0
   -5.2656   -0.8639   -2.3791 H   0  0  0  0  0  0  0  0  0  0  0  0
   -6.4249    0.2268   -1.5778 H   0  0  0  0  0  0  0  0  0  0  0  0
   -6.7189   -1.5281   -1.6344 H   0  0  0  0  0  0  0  0  0  0  0  0
   -3.4265    0.0088   -0.9835 H   0  0  0  0  0  0  0  0  0  0  0  0
    2.4780   -0.2897    0.6142 H   0  0  0  0  0  0  0  0  0  0  0  0
  1  2  1  0
  2  3  1  0
  3  4  2  0
  3  5  1  0
  5  6  1  0
  6  7  2  0
  7  8  1  0
  8  9  2  0
  9 10  1  0
 10 11  1  0
 11 12  1  0
 12 13  2  0
 12 14  1  0
 14 15  1  0
 15 16  2  0
 16 17  1  0
 17 18  2  0
 18 19  1  0
 19 20  1  0
 19 21  2  0
 10 22  2  0
 22  6  1  0
 21 15  1  0
  1 23  1  0
  1 24  1  0
  1 25  1  0
  5 26  1  0
  7 27  1  0
  8 28  1  0
  9 29  1  0
 14 30  1  0
 16 31  1  0
 17 32  1  0
 18 33  1  0
 20 34  1  0
 20 35  1  0
 20 36  1  0
 21 37  1  0
 22 38  1  0
M  END
>  <Energy>  (6) 
-40.36117329722856

>  <Real charge>  (6) 
0

>  <Mult>  (6) 
1

$$$$
