mol_649 285
     RDKit          3D

 24 24  0  0  0  0  0  0  0  0999 V2000
   -2.7171    1.6460   -0.5762 C   0  0  0  0  0  0  0  0  0  0  0  0
   -2.7281    0.2233   -0.5974 O   0  0  0  0  0  0  0  0  0  0  0  0
   -1.5702   -0.4034   -0.2129 C   0  0  0  0  0  0  0  0  0  0  0  0
   -0.3989    0.2196    0.2200 C   0  0  0  0  0  0  0  0  0  0  0  0
    0.7238   -0.5468    0.5882 C   0  0  0  0  0  0  0  0  0  0  0  0
    1.9935    0.1355    1.0432 C   0  0  0  0  0  0  0  0  0  0  0  0
    2.7830    0.6945   -0.1066 C   0  0  0  0  0  0  0  0  0  0  0  0
    3.1110    1.9862   -0.2430 C   0  0  0  0  0  0  0  0  0  0  0  0
    0.6592   -1.9465    0.5072 C   0  0  0  0  0  0  0  0  0  0  0  0
   -0.5087   -2.5745    0.0780 C   0  0  0  0  0  0  0  0  0  0  0  0
   -1.6062   -1.8007   -0.2747 C   0  0  0  0  0  0  0  0  0  0  0  0
   -2.7411   -2.4418   -0.6938 O   0  0  0  0  0  0  0  0  0  0  0  0
   -2.5662    2.0241    0.4403 H   0  0  0  0  0  0  0  0  0  0  0  0
   -3.6974    1.9922   -0.9176 H   0  0  0  0  0  0  0  0  0  0  0  0
   -1.9648    2.0458   -1.2643 H   0  0  0  0  0  0  0  0  0  0  0  0
   -0.3231    1.3008    0.2792 H   0  0  0  0  0  0  0  0  0  0  0  0
    2.6247   -0.5780    1.5874 H   0  0  0  0  0  0  0  0  0  0  0  0
    1.7352    0.9184    1.7677 H   0  0  0  0  0  0  0  0  0  0  0  0
    3.1058   -0.0141   -0.8673 H   0  0  0  0  0  0  0  0  0  0  0  0
    2.8172    2.7320    0.4888 H   0  0  0  0  0  0  0  0  0  0  0  0
    3.6866    2.3236   -1.0998 H   0  0  0  0  0  0  0  0  0  0  0  0
    1.5187   -2.5557    0.7778 H   0  0  0  0  0  0  0  0  0  0  0  0
   -0.5638   -3.6570    0.0163 H   0  0  0  0  0  0  0  0  0  0  0  0
   -3.3734   -1.7235   -0.8903 H   0  0  0  0  0  0  0  0  0  0  0  0
  1  2  1  0
  2  3  1  0
  3  4  2  0
  4  5  1  0
  5  6  1  0
  6  7  1  0
  7  8  2  3
  5  9  2  0
  9 10  1  0
 10 11  2  0
 11 12  1  0
 11  3  1  0
  1 13  1  0
  1 14  1  0
  1 15  1  0
  4 16  1  0
  6 17  1  0
  6 18  1  0
  7 19  1  0
  8 20  1  0
  8 21  1  0
  9 22  1  0
 10 23  1  0
 12 24  1  0
M  END
>  <Energy>  (1) 
32.767444407477214

>  <Real charge>  (1) 
0

>  <Mult>  (1) 
1

$$$$
mol_649 334
     RDKit          3D

 24 24  0  0  0  0  0  0  0  0999 V2000
    3.1120    1.1884    1.0761 C   0  0  0  0  0  0  0  0  0  0  0  0
    2.9637   -0.0242    0.3469 O   0  0  0  0  0  0  0  0  0  0  0  0
    1.7165   -0.2866   -0.1604 C   0  0  0  0  0  0  0  0  0  0  0  0
    0.5856    0.5214   -0.0304 C   0  0  0  0  0  0  0  0  0  0  0  0
   -0.6384    0.1324   -0.6072 C   0  0  0  0  0  0  0  0  0  0  0  0
   -1.8677    0.9985   -0.4543 C   0  0  0  0  0  0  0  0  0  0  0  0
   -2.7397    0.5533    0.6853 C   0  0  0  0  0  0  0  0  0  0  0  0
   -4.0200    0.1806    0.5566 C   0  0  0  0  0  0  0  0  0  0  0  0
   -0.7166   -1.0842   -1.3035 C   0  0  0  0  0  0  0  0  0  0  0  0
    0.4090   -1.8948   -1.4369 C   0  0  0  0  0  0  0  0  0  0  0  0
    1.6085   -1.4891   -0.8681 C   0  0  0  0  0  0  0  0  0  0  0  0
    2.7002   -2.3027   -1.0126 O   0  0  0  0  0  0  0  0  0  0  0  0
    2.9140    2.0579    0.4406 H   0  0  0  0  0  0  0  0  0  0  0  0
    4.1518    1.2512    1.4110 H   0  0  0  0  0  0  0  0  0  0  0  0
    2.4747    1.1940    1.9665 H   0  0  0  0  0  0  0  0  0  0  0  0
    0.6242    1.4589    0.5146 H   0  0  0  0  0  0  0  0  0  0  0  0
   -1.5667    2.0394   -0.2821 H   0  0  0  0  0  0  0  0  0  0  0  0
   -2.4221    1.0031   -1.4016 H   0  0  0  0  0  0  0  0  0  0  0  0
   -2.2859    0.5414    1.6743 H   0  0  0  0  0  0  0  0  0  0  0  0
   -4.5958   -0.1325    1.4224 H   0  0  0  0  0  0  0  0  0  0  0  0
   -4.5200    0.1735   -0.4069 H   0  0  0  0  0  0  0  0  0  0  0  0
   -1.6589   -1.4061   -1.7416 H   0  0  0  0  0  0  0  0  0  0  0  0
    0.3519   -2.8354   -1.9758 H   0  0  0  0  0  0  0  0  0  0  0  0
    3.4199   -1.8384   -0.5430 H   0  0  0  0  0  0  0  0  0  0  0  0
  1  2  1  0
  2  3  1  0
  3  4  2  0
  4  5  1  0
  5  6  1  0
  6  7  1  0
  7  8  2  3
  5  9  2  0
  9 10  1  0
 10 11  2  0
 11 12  1  0
 11  3  1  0
  1 13  1  0
  1 14  1  0
  1 15  1  0
  4 16  1  0
  6 17  1  0
  6 18  1  0
  7 19  1  0
  8 20  1  0
  8 21  1  0
  9 22  1  0
 10 23  1  0
 12 24  1  0
M  END
>  <Energy>  (2) 
33.00742688393222

>  <Real charge>  (2) 
0

>  <Mult>  (2) 
1

$$$$
