mol_155 22
     RDKit          3D

 10  9  0  0  0  0  0  0  0  0999 V2000
    1.8193    0.0803   -0.0110 C   0  0  0  0  0  0  0  0  0  0  0  0
    0.5285    0.4316   -0.0355 C   0  0  0  0  0  0  0  0  0  0  0  0
   -0.5285   -0.4316    0.4301 C   0  0  0  0  0  0  0  0  0  0  0  0
   -1.8193   -0.0803    0.4056 C   0  0  0  0  0  0  0  0  0  0  0  0
    2.5822    0.7627   -0.3722 H   0  0  0  0  0  0  0  0  0  0  0  0
    2.1496   -0.8831    0.3640 H   0  0  0  0  0  0  0  0  0  0  0  0
    0.2539    1.4107   -0.4225 H   0  0  0  0  0  0  0  0  0  0  0  0
   -0.2539   -1.4107    0.8171 H   0  0  0  0  0  0  0  0  0  0  0  0
   -2.1496    0.8831    0.0307 H   0  0  0  0  0  0  0  0  0  0  0  0
   -2.5822   -0.7627    0.7668 H   0  0  0  0  0  0  0  0  0  0  0  0
  1  2  2  3
  2  3  1  0
  3  4  2  3
  1  5  1  0
  1  6  1  0
  2  7  1  0
  3  8  1  0
  4  9  1  0
  4 10  1  0
M  END
>  <Energy>  (1) 
4.78378646908407

>  <Real charge>  (1) 
0

>  <Mult>  (1) 
1

$$$$
