mol_211 136
     RDKit          3D

 14 13  0  0  0  0  0  0  0  0999 V2000
   -2.2831    0.2664    0.2819 C   0  0  0  0  0  0  0  0  0  0  0  0
   -1.0798   -0.5147   -0.2091 C   0  0  0  0  0  0  0  0  0  0  0  0
    0.1002    0.2296    0.1165 O   0  0  0  0  0  0  0  0  0  0  0  0
    1.2598   -0.3673   -0.2733 C   0  0  0  0  0  0  0  0  0  0  0  0
    1.3473   -1.4407   -0.8522 O   0  0  0  0  0  0  0  0  0  0  0  0
    2.4293    0.4861    0.1113 C   0  0  0  0  0  0  0  0  0  0  0  0
   -2.3176    1.2557   -0.1862 H   0  0  0  0  0  0  0  0  0  0  0  0
   -3.2119   -0.2644    0.0550 H   0  0  0  0  0  0  0  0  0  0  0  0
   -2.2229    0.4277    1.3633 H   0  0  0  0  0  0  0  0  0  0  0  0
   -1.1442   -0.6496   -1.2946 H   0  0  0  0  0  0  0  0  0  0  0  0
   -1.0477   -1.4930    0.2837 H   0  0  0  0  0  0  0  0  0  0  0  0
    2.4564    0.6106    1.1967 H   0  0  0  0  0  0  0  0  0  0  0  0
    2.3596    1.4565   -0.3864 H   0  0  0  0  0  0  0  0  0  0  0  0
    3.3547   -0.0029   -0.2065 H   0  0  0  0  0  0  0  0  0  0  0  0
  1  2  1  0
  2  3  1  0
  3  4  1  0
  4  5  2  0
  4  6  1  0
  1  7  1  0
  1  8  1  0
  1  9  1  0
  2 10  1  0
  2 11  1  0
  6 12  1  0
  6 13  1  0
  6 14  1  0
M  END
>  <Energy>  (1) 
-11.097745666433438

>  <Real charge>  (1) 
0

>  <Mult>  (1) 
1

$$$$
mol_211 20
     RDKit          3D

 14 13  0  0  0  0  0  0  0  0999 V2000
   -1.9422   -0.3719    0.5928 C   0  0  0  0  0  0  0  0  0  0  0  0
   -1.1242    0.8160    0.1222 C   0  0  0  0  0  0  0  0  0  0  0  0
    0.2714    0.5824    0.3614 O   0  0  0  0  0  0  0  0  0  0  0  0
    0.9357   -0.0863   -0.6206 C   0  0  0  0  0  0  0  0  0  0  0  0
    0.4457   -0.4991   -1.6618 O   0  0  0  0  0  0  0  0  0  0  0  0
    2.3750   -0.2530   -0.2396 C   0  0  0  0  0  0  0  0  0  0  0  0
   -1.7410   -0.5833    1.6482 H   0  0  0  0  0  0  0  0  0  0  0  0
   -3.0117   -0.1799    0.4689 H   0  0  0  0  0  0  0  0  0  0  0  0
   -1.6820   -1.2752    0.0320 H   0  0  0  0  0  0  0  0  0  0  0  0
   -1.3156    1.0424   -0.9331 H   0  0  0  0  0  0  0  0  0  0  0  0
   -1.4026    1.7054    0.6971 H   0  0  0  0  0  0  0  0  0  0  0  0
    2.9022   -0.7831   -1.0380 H   0  0  0  0  0  0  0  0  0  0  0  0
    2.4496   -0.8417    0.6781 H   0  0  0  0  0  0  0  0  0  0  0  0
    2.8397    0.7273   -0.1075 H   0  0  0  0  0  0  0  0  0  0  0  0
  1  2  1  0
  2  3  1  0
  3  4  1  0
  4  5  2  0
  4  6  1  0
  1  7  1  0
  1  8  1  0
  1  9  1  0
  2 10  1  0
  2 11  1  0
  6 12  1  0
  6 13  1  0
  6 14  1  0
M  END
>  <Energy>  (2) 
-10.657760767139935

>  <Real charge>  (2) 
0

>  <Mult>  (2) 
1

$$$$
