mol_228 58
     RDKit          3D

 13 12  0  0  0  0  0  0  0  0999 V2000
   -0.8460    0.9476   -0.6820 C   0  0  0  0  0  0  0  0  0  0  0  0
   -0.4338   -0.1660    0.2430 C   0  0  0  0  0  0  0  0  0  0  0  0
   -1.3434   -0.7936    1.0069 C   0  0  0  0  0  0  0  0  0  0  0  0
    0.9637   -0.5638    0.3081 C   0  0  0  0  0  0  0  0  0  0  0  0
    1.9718   -0.0288   -0.3925 C   0  0  0  0  0  0  0  0  0  0  0  0
   -0.3346    1.8799   -0.4192 H   0  0  0  0  0  0  0  0  0  0  0  0
   -0.6111    0.6955   -1.7217 H   0  0  0  0  0  0  0  0  0  0  0  0
   -1.9230    1.1437   -0.6316 H   0  0  0  0  0  0  0  0  0  0  0  0
   -2.3930   -0.5173    0.9784 H   0  0  0  0  0  0  0  0  0  0  0  0
   -1.0740   -1.5997    1.6826 H   0  0  0  0  0  0  0  0  0  0  0  0
    1.2060   -1.3751    0.9943 H   0  0  0  0  0  0  0  0  0  0  0  0
    2.9832   -0.4034   -0.2665 H   0  0  0  0  0  0  0  0  0  0  0  0
    1.8342    0.7812   -1.0998 H   0  0  0  0  0  0  0  0  0  0  0  0
  1  2  1  0
  2  3  2  3
  2  4  1  0
  4  5  2  3
  1  6  1  0
  1  7  1  0
  1  8  1  0
  3  9  1  0
  3 10  1  0
  4 11  1  0
  5 12  1  0
  5 13  1  0
M  END
>  <Energy>  (1) 
7.592752451886976

>  <Real charge>  (1) 
0

>  <Mult>  (1) 
1

$$$$
