mol_930 161
     RDKit          3D

 27 26  0  0  0  0  0  0  0  0999 V2000
    4.1574    0.4395    0.6549 C   0  0  0  0  0  0  0  0  0  0  0  0
    2.9402    0.2569   -0.2375 C   0  0  0  0  0  0  0  0  0  0  0  0
    1.6453    0.2556    0.5748 C   0  0  0  0  0  0  0  0  0  0  0  0
    0.4220    0.0719   -0.3275 C   0  0  0  0  0  0  0  0  0  0  0  0
   -0.8745    0.0645    0.4930 C   0  0  0  0  0  0  0  0  0  0  0  0
   -2.1634   -0.0276   -0.3502 C   0  0  0  0  0  0  0  0  0  0  0  0
   -3.3906    0.0502    0.5640 C   0  0  0  0  0  0  0  0  0  0  0  0
   -2.2246   -1.3069   -1.1860 C   0  0  0  0  0  0  0  0  0  0  0  0
   -2.2195    1.0774   -1.2546 O   0  0  0  0  0  0  0  0  0  0  0  0
    4.1085    1.3901    1.1956 H   0  0  0  0  0  0  0  0  0  0  0  0
    4.2311   -0.3698    1.3883 H   0  0  0  0  0  0  0  0  0  0  0  0
    5.0720    0.4374    0.0537 H   0  0  0  0  0  0  0  0  0  0  0  0
    2.9138    1.0637   -0.9791 H   0  0  0  0  0  0  0  0  0  0  0  0
    3.0359   -0.6865   -0.7875 H   0  0  0  0  0  0  0  0  0  0  0  0
    1.6782   -0.5508    1.3175 H   0  0  0  0  0  0  0  0  0  0  0  0
    1.5573    1.1997    1.1262 H   0  0  0  0  0  0  0  0  0  0  0  0
    0.5236   -0.8709   -0.8762 H   0  0  0  0  0  0  0  0  0  0  0  0
    0.3926    0.8800   -1.0676 H   0  0  0  0  0  0  0  0  0  0  0  0
   -0.9041    0.9921    1.0802 H   0  0  0  0  0  0  0  0  0  0  0  0
   -0.8433   -0.7658    1.2101 H   0  0  0  0  0  0  0  0  0  0  0  0
   -3.3924    0.9838    1.1383 H   0  0  0  0  0  0  0  0  0  0  0  0
   -3.4233   -0.7886    1.2670 H   0  0  0  0  0  0  0  0  0  0  0  0
   -4.3160    0.0488   -0.0232 H   0  0  0  0  0  0  0  0  0  0  0  0
   -3.1761   -1.3709   -1.7271 H   0  0  0  0  0  0  0  0  0  0  0  0
   -1.4445   -1.3225   -1.9543 H   0  0  0  0  0  0  0  0  0  0  0  0
   -2.1235   -2.2009   -0.5624 H   0  0  0  0  0  0  0  0  0  0  0  0
   -2.1819    1.8957   -0.7305 H   0  0  0  0  0  0  0  0  0  0  0  0
  1  2  1  0
  2  3  1  0
  3  4  1  0
  4  5  1  0
  5  6  1  0
  6  7  1  0
  6  8  1  0
  6  9  1  0
  1 10  1  0
  1 11  1  0
  1 12  1  0
  2 13  1  0
  2 14  1  0
  3 15  1  0
  3 16  1  0
  4 17  1  0
  4 18  1  0
  5 19  1  0
  5 20  1  0
  7 21  1  0
  7 22  1  0
  7 23  1  0
  8 24  1  0
  8 25  1  0
  8 26  1  0
  9 27  1  0
M  END
>  <Energy>  (1) 
8.321735990600718

>  <Real charge>  (1) 
0

>  <Mult>  (1) 
1

$$$$
mol_930 515
     RDKit          3D

 27 26  0  0  0  0  0  0  0  0999 V2000
    4.1383    0.4142    0.0439 C   0  0  0  0  0  0  0  0  0  0  0  0
    2.7059    0.8931   -0.1299 C   0  0  0  0  0  0  0  0  0  0  0  0
    1.7040   -0.2326    0.1262 C   0  0  0  0  0  0  0  0  0  0  0  0
    0.2625    0.2537   -0.0499 C   0  0  0  0  0  0  0  0  0  0  0  0
   -0.7359   -0.8782    0.2083 C   0  0  0  0  0  0  0  0  0  0  0  0
   -2.2230   -0.4993    0.0544 C   0  0  0  0  0  0  0  0  0  0  0  0
   -2.5723   -0.0652   -1.3706 C   0  0  0  0  0  0  0  0  0  0  0  0
   -2.6541    0.5729    1.0557 C   0  0  0  0  0  0  0  0  0  0  0  0
   -2.9953   -1.6704    0.3525 O   0  0  0  0  0  0  0  0  0  0  0  0
    4.8378    1.2348   -0.1439 H   0  0  0  0  0  0  0  0  0  0  0  0
    4.3688   -0.3956   -0.6558 H   0  0  0  0  0  0  0  0  0  0  0  0
    4.3089    0.0484    1.0615 H   0  0  0  0  0  0  0  0  0  0  0  0
    2.5180    1.7233    0.5609 H   0  0  0  0  0  0  0  0  0  0  0  0
    2.5776    1.2818   -1.1469 H   0  0  0  0  0  0  0  0  0  0  0  0
    1.8991   -1.0618   -0.5647 H   0  0  0  0  0  0  0  0  0  0  0  0
    1.8394   -0.6202    1.1433 H   0  0  0  0  0  0  0  0  0  0  0  0
    0.1379    0.6409   -1.0670 H   0  0  0  0  0  0  0  0  0  0  0  0
    0.0789    1.0831    0.6418 H   0  0  0  0  0  0  0  0  0  0  0  0
   -0.5765   -1.2787    1.2190 H   0  0  0  0  0  0  0  0  0  0  0  0
   -0.5118   -1.7165   -0.4657 H   0  0  0  0  0  0  0  0  0  0  0  0
   -2.2663   -0.8271   -2.0964 H   0  0  0  0  0  0  0  0  0  0  0  0
   -2.0974    0.8826   -1.6414 H   0  0  0  0  0  0  0  0  0  0  0  0
   -3.6563    0.0518   -1.4851 H   0  0  0  0  0  0  0  0  0  0  0  0
   -2.1784    1.5383    0.8584 H   0  0  0  0  0  0  0  0  0  0  0  0
   -3.7405    0.7174    1.0256 H   0  0  0  0  0  0  0  0  0  0  0  0
   -2.4128    0.2681    2.0804 H   0  0  0  0  0  0  0  0  0  0  0  0
   -2.7568   -2.3587   -0.2919 H   0  0  0  0  0  0  0  0  0  0  0  0
  1  2  1  0
  2  3  1  0
  3  4  1  0
  4  5  1  0
  5  6  1  0
  6  7  1  0
  6  8  1  0
  6  9  1  0
  1 10  1  0
  1 11  1  0
  1 12  1  0
  2 13  1  0
  2 14  1  0
  3 15  1  0
  3 16  1  0
  4 17  1  0
  4 18  1  0
  5 19  1  0
  5 20  1  0
  7 21  1  0
  7 22  1  0
  7 23  1  0
  8 24  1  0
  8 25  1  0
  8 26  1  0
  9 27  1  0
M  END
>  <Energy>  (2) 
8.560177539494884

>  <Real charge>  (2) 
0

>  <Mult>  (2) 
1

$$$$
mol_930 281
     RDKit          3D

 27 26  0  0  0  0  0  0  0  0999 V2000
    4.2167    0.0774   -0.1328 C   0  0  0  0  0  0  0  0  0  0  0  0
    2.8579    0.4346    0.4483 C   0  0  0  0  0  0  0  0  0  0  0  0
    1.7193   -0.0950   -0.4231 C   0  0  0  0  0  0  0  0  0  0  0  0
    0.3525    0.2669    0.1655 C   0  0  0  0  0  0  0  0  0  0  0  0
   -0.7860   -0.2708   -0.7114 C   0  0  0  0  0  0  0  0  0  0  0  0
   -2.2075    0.0812   -0.2244 C   0  0  0  0  0  0  0  0  0  0  0  0
   -3.2369   -0.4857   -1.2074 C   0  0  0  0  0  0  0  0  0  0  0  0
   -2.4999   -0.4442    1.1831 C   0  0  0  0  0  0  0  0  0  0  0  0
   -2.3755    1.5003   -0.2285 O   0  0  0  0  0  0  0  0  0  0  0  0
    4.3412    0.5071   -1.1320 H   0  0  0  0  0  0  0  0  0  0  0  0
    4.3384   -1.0079   -0.2076 H   0  0  0  0  0  0  0  0  0  0  0  0
    5.0161    0.4657    0.5059 H   0  0  0  0  0  0  0  0  0  0  0  0
    2.7812    1.5243    0.5397 H   0  0  0  0  0  0  0  0  0  0  0  0
    2.7784    0.0178    1.4591 H   0  0  0  0  0  0  0  0  0  0  0  0
    1.8064    0.3218   -1.4339 H   0  0  0  0  0  0  0  0  0  0  0  0
    1.8031   -1.1849   -0.5144 H   0  0  0  0  0  0  0  0  0  0  0  0
    0.2787   -0.1513    1.1753 H   0  0  0  0  0  0  0  0  0  0  0  0
    0.2770    1.3564    0.2546 H   0  0  0  0  0  0  0  0  0  0  0  0
   -0.6506    0.1389   -1.7215 H   0  0  0  0  0  0  0  0  0  0  0  0
   -0.6883   -1.3611   -0.7928 H   0  0  0  0  0  0  0  0  0  0  0  0
   -3.0803   -0.0808   -2.2139 H   0  0  0  0  0  0  0  0  0  0  0  0
   -4.2544   -0.1999   -0.9165 H   0  0  0  0  0  0  0  0  0  0  0  0
   -3.1856   -1.5781   -1.2609 H   0  0  0  0  0  0  0  0  0  0  0  0
   -3.5340   -0.2221    1.4717 H   0  0  0  0  0  0  0  0  0  0  0  0
   -2.3492   -1.5266    1.2474 H   0  0  0  0  0  0  0  0  0  0  0  0
   -1.8700    0.0432    1.9346 H   0  0  0  0  0  0  0  0  0  0  0  0
   -1.8488    1.8727    0.4984 H   0  0  0  0  0  0  0  0  0  0  0  0
  1  2  1  0
  2  3  1  0
  3  4  1  0
  4  5  1  0
  5  6  1  0
  6  7  1  0
  6  8  1  0
  6  9  1  0
  1 10  1  0
  1 11  1  0
  1 12  1  0
  2 13  1  0
  2 14  1  0
  3 15  1  0
  3 16  1  0
  4 17  1  0
  4 18  1  0
  5 19  1  0
  5 20  1  0
  7 21  1  0
  7 22  1  0
  7 23  1  0
  8 24  1  0
  8 25  1  0
  8 26  1  0
  9 27  1  0
M  END
>  <Energy>  (3) 
8.705615540463583

>  <Real charge>  (3) 
0

>  <Mult>  (3) 
1

$$$$
mol_930 401
     RDKit          3D

 27 26  0  0  0  0  0  0  0  0999 V2000
    3.5081    0.5973   -0.5539 C   0  0  0  0  0  0  0  0  0  0  0  0
    3.0641   -0.5215    0.3757 C   0  0  0  0  0  0  0  0  0  0  0  0
    1.6643   -1.0557    0.0644 C   0  0  0  0  0  0  0  0  0  0  0  0
    0.5553   -0.0251    0.2977 C   0  0  0  0  0  0  0  0  0  0  0  0
   -0.8305   -0.6487    0.0804 C   0  0  0  0  0  0  0  0  0  0  0  0
   -2.0045    0.3450    0.2042 C   0  0  0  0  0  0  0  0  0  0  0  0
   -2.0786    0.9923    1.5877 C   0  0  0  0  0  0  0  0  0  0  0  0
   -3.3253   -0.3685   -0.1029 C   0  0  0  0  0  0  0  0  0  0  0  0
   -1.8411    1.3951   -0.7512 O   0  0  0  0  0  0  0  0  0  0  0  0
    3.4425    0.2874   -1.6016 H   0  0  0  0  0  0  0  0  0  0  0  0
    4.5482    0.8679   -0.3453 H   0  0  0  0  0  0  0  0  0  0  0  0
    2.8996    1.4963   -0.4193 H   0  0  0  0  0  0  0  0  0  0  0  0
    3.1081   -0.1723    1.4139 H   0  0  0  0  0  0  0  0  0  0  0  0
    3.7782   -1.3493    0.2896 H   0  0  0  0  0  0  0  0  0  0  0  0
    1.4817   -1.9293    0.7024 H   0  0  0  0  0  0  0  0  0  0  0  0
    1.6289   -1.4094   -0.9733 H   0  0  0  0  0  0  0  0  0  0  0  0
    0.6865    0.8216   -0.3843 H   0  0  0  0  0  0  0  0  0  0  0  0
    0.6365    0.3595    1.3202 H   0  0  0  0  0  0  0  0  0  0  0  0
   -0.8455   -1.0875   -0.9263 H   0  0  0  0  0  0  0  0  0  0  0  0
   -0.9707   -1.4739    0.7902 H   0  0  0  0  0  0  0  0  0  0  0  0
   -2.9551    1.6468    1.6628 H   0  0  0  0  0  0  0  0  0  0  0  0
   -1.2118    1.6338    1.7780 H   0  0  0  0  0  0  0  0  0  0  0  0
   -2.1423    0.2409    2.3813 H   0  0  0  0  0  0  0  0  0  0  0  0
   -3.5260   -1.1711    0.6143 H   0  0  0  0  0  0  0  0  0  0  0  0
   -3.3124   -0.7994   -1.1105 H   0  0  0  0  0  0  0  0  0  0  0  0
   -4.1645    0.3363   -0.0808 H   0  0  0  0  0  0  0  0  0  0  0  0
   -1.7935    0.9917   -1.6348 H   0  0  0  0  0  0  0  0  0  0  0  0
  1  2  1  0
  2  3  1  0
  3  4  1  0
  4  5  1  0
  5  6  1  0
  6  7  1  0
  6  8  1  0
  6  9  1  0
  1 10  1  0
  1 11  1  0
  1 12  1  0
  2 13  1  0
  2 14  1  0
  3 15  1  0
  3 16  1  0
  4 17  1  0
  4 18  1  0
  5 19  1  0
  5 20  1  0
  7 21  1  0
  7 22  1  0
  7 23  1  0
  8 24  1  0
  8 25  1  0
  8 26  1  0
  9 27  1  0
M  END
>  <Energy>  (4) 
9.128364787315517

>  <Real charge>  (4) 
0

>  <Mult>  (4) 
1

$$$$
mol_930 227
     RDKit          3D

 27 26  0  0  0  0  0  0  0  0999 V2000
    3.5279    0.6803   -0.2605 C   0  0  0  0  0  0  0  0  0  0  0  0
    3.0350   -0.7307    0.0210 C   0  0  0  0  0  0  0  0  0  0  0  0
    1.6154   -0.9951   -0.4853 C   0  0  0  0  0  0  0  0  0  0  0  0
    0.5487   -0.1670    0.2379 C   0  0  0  0  0  0  0  0  0  0  0  0
   -0.8605   -0.5459   -0.2391 C   0  0  0  0  0  0  0  0  0  0  0  0
   -2.0025    0.1822    0.5004 C   0  0  0  0  0  0  0  0  0  0  0  0
   -3.3570   -0.3294   -0.0011 C   0  0  0  0  0  0  0  0  0  0  0  0
   -1.9324    1.7008    0.3336 C   0  0  0  0  0  0  0  0  0  0  0  0
   -1.9180   -0.0989    1.8989 O   0  0  0  0  0  0  0  0  0  0  0  0
    4.5780    0.7766    0.0339 H   0  0  0  0  0  0  0  0  0  0  0  0
    3.4520    0.9181   -1.3262 H   0  0  0  0  0  0  0  0  0  0  0  0
    2.9576    1.4247    0.3026 H   0  0  0  0  0  0  0  0  0  0  0  0
    3.0902   -0.9284    1.0978 H   0  0  0  0  0  0  0  0  0  0  0  0
    3.7146   -1.4400   -0.4664 H   0  0  0  0  0  0  0  0  0  0  0  0
    1.5671   -0.8000   -1.5636 H   0  0  0  0  0  0  0  0  0  0  0  0
    1.3969   -2.0613   -0.3471 H   0  0  0  0  0  0  0  0  0  0  0  0
    0.7247    0.8965    0.0491 H   0  0  0  0  0  0  0  0  0  0  0  0
    0.6342   -0.3289    1.3186 H   0  0  0  0  0  0  0  0  0  0  0  0
   -0.9831   -1.6278   -0.0955 H   0  0  0  0  0  0  0  0  0  0  0  0
   -0.9397   -0.3564   -1.3172 H   0  0  0  0  0  0  0  0  0  0  0  0
   -4.1799    0.1317    0.5570 H   0  0  0  0  0  0  0  0  0  0  0  0
   -3.4487   -1.4106    0.1535 H   0  0  0  0  0  0  0  0  0  0  0  0
   -3.4980   -0.1189   -1.0663 H   0  0  0  0  0  0  0  0  0  0  0  0
   -2.7890    2.1837    0.8187 H   0  0  0  0  0  0  0  0  0  0  0  0
   -1.0432    2.1177    0.8180 H   0  0  0  0  0  0  0  0  0  0  0  0
   -1.9276    1.9904   -0.7221 H   0  0  0  0  0  0  0  0  0  0  0  0
   -1.9629   -1.0635    2.0139 H   0  0  0  0  0  0  0  0  0  0  0  0
  1  2  1  0
  2  3  1  0
  3  4  1  0
  4  5  1  0
  5  6  1  0
  6  7  1  0
  6  8  1  0
  6  9  1  0
  1 10  1  0
  1 11  1  0
  1 12  1  0
  2 13  1  0
  2 14  1  0
  3 15  1  0
  3 16  1  0
  4 17  1  0
  4 18  1  0
  5 19  1  0
  5 20  1  0
  7 21  1  0
  7 22  1  0
  7 23  1  0
  8 24  1  0
  8 25  1  0
  8 26  1  0
  9 27  1  0
M  END
>  <Energy>  (5) 
9.143526785270922

>  <Real charge>  (5) 
0

>  <Mult>  (5) 
1

$$$$
mol_930 368
     RDKit          3D

 27 26  0  0  0  0  0  0  0  0999 V2000
    3.9407    0.0936    0.5515 C   0  0  0  0  0  0  0  0  0  0  0  0
    2.4489    0.3903    0.5238 C   0  0  0  0  0  0  0  0  0  0  0  0
    1.8115   -0.0808   -0.7839 C   0  0  0  0  0  0  0  0  0  0  0  0
    0.3315    0.2973   -0.9116 C   0  0  0  0  0  0  0  0  0  0  0  0
   -0.5624   -0.3962    0.1259 C   0  0  0  0  0  0  0  0  0  0  0  0
   -2.0759   -0.1964   -0.1043 C   0  0  0  0  0  0  0  0  0  0  0  0
   -2.4809    1.2779   -0.0709 C   0  0  0  0  0  0  0  0  0  0  0  0
   -2.8706   -0.9744    0.9497 C   0  0  0  0  0  0  0  0  0  0  0  0
   -2.4336   -0.7096   -1.3892 O   0  0  0  0  0  0  0  0  0  0  0  0
    4.3772    0.4343    1.4956 H   0  0  0  0  0  0  0  0  0  0  0  0
    4.1285   -0.9808    0.4581 H   0  0  0  0  0  0  0  0  0  0  0  0
    4.4582    0.6059   -0.2659 H   0  0  0  0  0  0  0  0  0  0  0  0
    1.9779   -0.1072    1.3782 H   0  0  0  0  0  0  0  0  0  0  0  0
    2.2947    1.4684    0.6470 H   0  0  0  0  0  0  0  0  0  0  0  0
    2.3517    0.3673   -1.6273 H   0  0  0  0  0  0  0  0  0  0  0  0
    1.9233   -1.1676   -0.8806 H   0  0  0  0  0  0  0  0  0  0  0  0
    0.2334    1.3854   -0.8255 H   0  0  0  0  0  0  0  0  0  0  0  0
    0.0004    0.0258   -1.9209 H   0  0  0  0  0  0  0  0  0  0  0  0
   -0.3031   -0.0417    1.1306 H   0  0  0  0  0  0  0  0  0  0  0  0
   -0.3406   -1.4712    0.0960 H   0  0  0  0  0  0  0  0  0  0  0  0
   -3.5664    1.3842   -0.1828 H   0  0  0  0  0  0  0  0  0  0  0  0
   -2.1838    1.7562    0.8679 H   0  0  0  0  0  0  0  0  0  0  0  0
   -2.0399    1.8340   -0.9050 H   0  0  0  0  0  0  0  0  0  0  0  0
   -3.9479   -0.8950    0.7640 H   0  0  0  0  0  0  0  0  0  0  0  0
   -2.6298   -2.0430    0.9114 H   0  0  0  0  0  0  0  0  0  0  0  0
   -2.6641   -0.6092    1.9610 H   0  0  0  0  0  0  0  0  0  0  0  0
   -2.1789   -1.6477   -1.4186 H   0  0  0  0  0  0  0  0  0  0  0  0
  1  2  1  0
  2  3  1  0
  3  4  1  0
  4  5  1  0
  5  6  1  0
  6  7  1  0
  6  8  1  0
  6  9  1  0
  1 10  1  0
  1 11  1  0
  1 12  1  0
  2 13  1  0
  2 14  1  0
  3 15  1  0
  3 16  1  0
  4 17  1  0
  4 18  1  0
  5 19  1  0
  5 20  1  0
  7 21  1  0
  7 22  1  0
  7 23  1  0
  8 24  1  0
  8 25  1  0
  8 26  1  0
  9 27  1  0
M  END
>  <Energy>  (6) 
9.156395615394509

>  <Real charge>  (6) 
0

>  <Mult>  (6) 
1

$$$$
mol_930 435
     RDKit          3D

 27 26  0  0  0  0  0  0  0  0999 V2000
    3.6335    0.4122    0.3137 C   0  0  0  0  0  0  0  0  0  0  0  0
    2.9919   -0.7200   -0.4733 C   0  0  0  0  0  0  0  0  0  0  0  0
    1.6426   -1.1693    0.0918 C   0  0  0  0  0  0  0  0  0  0  0  0
    0.5556   -0.0941   -0.0047 C   0  0  0  0  0  0  0  0  0  0  0  0
   -0.8000   -0.6375    0.4692 C   0  0  0  0  0  0  0  0  0  0  0  0
   -1.9340    0.4074    0.4958 C   0  0  0  0  0  0  0  0  0  0  0  0
   -3.2141   -0.2375    1.0375 C   0  0  0  0  0  0  0  0  0  0  0  0
   -2.1994    1.0179   -0.8821 C   0  0  0  0  0  0  0  0  0  0  0  0
   -1.5587    1.4563    1.3911 O   0  0  0  0  0  0  0  0  0  0  0  0
    3.7316    0.1494    1.3717 H   0  0  0  0  0  0  0  0  0  0  0  0
    3.0505    1.3346    0.2380 H   0  0  0  0  0  0  0  0  0  0  0  0
    4.6345    0.6209   -0.0776 H   0  0  0  0  0  0  0  0  0  0  0  0
    3.6739   -1.5786   -0.4663 H   0  0  0  0  0  0  0  0  0  0  0  0
    2.8758   -0.4165   -1.5202 H   0  0  0  0  0  0  0  0  0  0  0  0
    1.3179   -2.0580   -0.4635 H   0  0  0  0  0  0  0  0  0  0  0  0
    1.7668   -1.4777    1.1370 H   0  0  0  0  0  0  0  0  0  0  0  0
    0.4804    0.2433   -1.0442 H   0  0  0  0  0  0  0  0  0  0  0  0
    0.8359    0.7722    0.6037 H   0  0  0  0  0  0  0  0  0  0  0  0
   -1.0920   -1.4819   -0.1682 H   0  0  0  0  0  0  0  0  0  0  0  0
   -0.6646   -1.0340    1.4845 H   0  0  0  0  0  0  0  0  0  0  0  0
   -4.0227    0.4986    1.1135 H   0  0  0  0  0  0  0  0  0  0  0  0
   -3.0564   -0.6264    2.0500 H   0  0  0  0  0  0  0  0  0  0  0  0
   -3.5534   -1.0589    0.3980 H   0  0  0  0  0  0  0  0  0  0  0  0
   -2.4122    0.2468   -1.6294 H   0  0  0  0  0  0  0  0  0  0  0  0
   -1.3502    1.6183   -1.2246 H   0  0  0  0  0  0  0  0  0  0  0  0
   -3.0537    1.7040   -0.8447 H   0  0  0  0  0  0  0  0  0  0  0  0
   -2.2798    2.1086    1.4095 H   0  0  0  0  0  0  0  0  0  0  0  0
  1  2  1  0
  2  3  1  0
  3  4  1  0
  4  5  1  0
  5  6  1  0
  6  7  1  0
  6  8  1  0
  6  9  1  0
  1 10  1  0
  1 11  1  0
  1 12  1  0
  2 13  1  0
  2 14  1  0
  3 15  1  0
  3 16  1  0
  4 17  1  0
  4 18  1  0
  5 19  1  0
  5 20  1  0
  7 21  1  0
  7 22  1  0
  7 23  1  0
  8 24  1  0
  8 25  1  0
  8 26  1  0
  9 27  1  0
M  END
>  <Energy>  (7) 
9.206605386528746

>  <Real charge>  (7) 
0

>  <Mult>  (7) 
1

$$$$
