mol_139 1
     RDKit          3D

 12 12  0  0  0  0  0  0  0  0999 V2000
   -2.2541   -2.1871   -0.0972 Cl  0  0  0  0  0  0  0  0  0  0  0  0
   -1.0247   -0.9371   -0.0445 C   0  0  0  0  0  0  0  0  0  0  0  0
   -1.3960    0.4124   -0.0713 C   0  0  0  0  0  0  0  0  0  0  0  0
   -0.4154    1.4087   -0.0294 C   0  0  0  0  0  0  0  0  0  0  0  0
    0.9367    1.0581    0.0394 C   0  0  0  0  0  0  0  0  0  0  0  0
    1.3100   -0.2905    0.0663 C   0  0  0  0  0  0  0  0  0  0  0  0
    3.3490   -0.8193    0.1701 I   0  0  0  0  0  0  0  0  0  0  0  0
    0.3289   -1.2879    0.0243 C   0  0  0  0  0  0  0  0  0  0  0  0
   -2.4412    0.6893   -0.1246 H   0  0  0  0  0  0  0  0  0  0  0  0
   -0.7031    2.4519   -0.0501 H   0  0  0  0  0  0  0  0  0  0  0  0
    1.6921    1.8325    0.0717 H   0  0  0  0  0  0  0  0  0  0  0  0
    0.6178   -2.3310    0.0452 H   0  0  0  0  0  0  0  0  0  0  0  0
  1  2  1  0
  2  3  2  0
  3  4  1  0
  4  5  2  0
  5  6  1  0
  6  7  1  0
  6  8  2  0
  8  2  1  0
  3  9  1  0
  4 10  1  0
  5 11  1  0
  8 12  1  0
M  END
>  <Energy>  (1) 
10.241383472407815

>  <Real charge>  (1) 
0

>  <Mult>  (1) 
1

$$$$
