mol_132 690
     RDKit          3D

 56 59  0  0  0  0  0  0  0  0999 V2000
   -2.2123   -2.0542    0.2077 C   0  0  0  0  0  0  0  0  0  0  0  0
   -2.0122   -0.5263    0.1547 C   0  0  0  0  0  0  0  0  0  0  0  0
   -1.4470   -0.1207   -1.2223 C   0  0  0  0  0  0  0  0  0  0  0  0
    0.0017   -0.5663   -1.4635 C   0  0  0  0  0  0  0  0  0  0  0  0
    0.3490   -0.0936   -2.7662 O   0  0  0  0  0  0  0  0  0  0  0  0
    0.9730   -0.0321   -0.3754 C   0  0  0  0  0  0  0  0  0  0  0  0
    0.9193    1.3432   -0.4686 F   0  0  0  0  0  0  0  0  0  0  0  0
    0.4336   -0.4074    1.0345 C   0  0  0  0  0  0  0  0  0  0  0  0
    1.3141    0.1984    2.1372 C   0  0  0  0  0  0  0  0  0  0  0  0
    2.7506   -0.2848    2.0192 C   0  0  0  0  0  0  0  0  0  0  0  0
    3.3267    0.0169    0.6575 C   0  0  0  0  0  0  0  0  0  0  0  0
    4.5159    0.6408    0.5769 C   0  0  0  0  0  0  0  0  0  0  0  0
    5.1994    0.8579   -0.7164 C   0  0  0  0  0  0  0  0  0  0  0  0
    6.2630    1.4711   -0.7444 O   0  0  0  0  0  0  0  0  0  0  0  0
    4.5984    0.2253   -1.9398 C   0  0  0  0  0  0  0  0  0  0  0  0
    3.0781    0.2295   -1.8516 C   0  0  0  0  0  0  0  0  0  0  0  0
    2.5024   -0.4388   -0.5647 C   0  0  0  0  0  0  0  0  0  0  0  0
    2.6655   -1.9717   -0.6948 C   0  0  0  0  0  0  0  0  0  0  0  0
   -1.0528   -0.0556    1.2734 C   0  0  0  0  0  0  0  0  0  0  0  0
   -1.3818    1.4369    1.4603 C   0  0  0  0  0  0  0  0  0  0  0  0
   -2.8147    1.6419    0.9483 C   0  0  0  0  0  0  0  0  0  0  0  0
   -3.3113    0.2558    0.5253 C   0  0  0  0  0  0  0  0  0  0  0  0
   -3.9036   -0.3288    1.7026 O   0  0  0  0  0  0  0  0  0  0  0  0
   -4.4079    0.2235   -0.5538 C   0  0  0  0  0  0  0  0  0  0  0  0
   -5.1821   -0.7423   -0.6195 O   0  0  0  0  0  0  0  0  0  0  0  0
   -4.5596    1.3919   -1.5169 C   0  0  0  0  0  0  0  0  0  0  0  0
   -5.4515    1.0781   -2.5777 O   0  0  0  0  0  0  0  0  0  0  0  0
   -2.5672   -2.3871    1.1888 H   0  0  0  0  0  0  0  0  0  0  0  0
   -1.2836   -2.5994    0.0149 H   0  0  0  0  0  0  0  0  0  0  0  0
   -2.9437   -2.3796   -0.5396 H   0  0  0  0  0  0  0  0  0  0  0  0
   -1.4883    0.9677   -1.3552 H   0  0  0  0  0  0  0  0  0  0  0  0
   -2.0799   -0.5247   -2.0239 H   0  0  0  0  0  0  0  0  0  0  0  0
    0.0417   -1.6582   -1.5055 H   0  0  0  0  0  0  0  0  0  0  0  0
    0.4286    0.8778   -2.7073 H   0  0  0  0  0  0  0  0  0  0  0  0
    0.4989   -1.4992    1.1320 H   0  0  0  0  0  0  0  0  0  0  0  0
    1.2952    1.2942    2.0900 H   0  0  0  0  0  0  0  0  0  0  0  0
    0.9251   -0.0844    3.1230 H   0  0  0  0  0  0  0  0  0  0  0  0
    3.3445    0.1794    2.8162 H   0  0  0  0  0  0  0  0  0  0  0  0
    2.7938   -1.3666    2.1952 H   0  0  0  0  0  0  0  0  0  0  0  0
    5.0704    0.9694    1.4496 H   0  0  0  0  0  0  0  0  0  0  0  0
    4.9083    0.8030   -2.8177 H   0  0  0  0  0  0  0  0  0  0  0  0
    4.9962   -0.7892   -2.0426 H   0  0  0  0  0  0  0  0  0  0  0  0
    2.7424    1.2736   -1.9064 H   0  0  0  0  0  0  0  0  0  0  0  0
    2.7031   -0.2724   -2.7496 H   0  0  0  0  0  0  0  0  0  0  0  0
    2.1898   -2.5134    0.1283 H   0  0  0  0  0  0  0  0  0  0  0  0
    2.2287   -2.3431   -1.6279 H   0  0  0  0  0  0  0  0  0  0  0  0
    3.7216   -2.2660   -0.6977 H   0  0  0  0  0  0  0  0  0  0  0  0
   -1.3437   -0.5541    2.2111 H   0  0  0  0  0  0  0  0  0  0  0  0
   -0.7049    2.0935    0.9070 H   0  0  0  0  0  0  0  0  0  0  0  0
   -1.3036    1.7181    2.5167 H   0  0  0  0  0  0  0  0  0  0  0  0
   -2.7875    2.3575    0.1212 H   0  0  0  0  0  0  0  0  0  0  0  0
   -3.4401    2.0799    1.7347 H   0  0  0  0  0  0  0  0  0  0  0  0
   -4.4731   -1.0639    1.3936 H   0  0  0  0  0  0  0  0  0  0  0  0
   -4.9624    2.2505   -0.9735 H   0  0  0  0  0  0  0  0  0  0  0  0
   -3.5981    1.6487   -1.9626 H   0  0  0  0  0  0  0  0  0  0  0  0
   -6.0662    0.3991   -2.2326 H   0  0  0  0  0  0  0  0  0  0  0  0
  1  2  1  0
  2  3  1  0
  3  4  1  0
  4  5  1  0
  4  6  1  0
  6  7  1  0
  6  8  1  0
  8  9  1  0
  9 10  1  0
 10 11  1  0
 11 12  2  0
 12 13  1  0
 13 14  2  0
 13 15  1  0
 15 16  1  0
 16 17  1  0
 17 18  1  0
  8 19  1  0
 19 20  1  0
 20 21  1  0
 21 22  1  0
 22 23  1  0
 22 24  1  0
 24 25  2  0
 24 26  1  0
 26 27  1  0
 17  6  1  0
 17 11  1  0
 19  2  1  0
 22  2  1  0
  1 28  1  0
  1 29  1  0
  1 30  1  0
  3 31  1  0
  3 32  1  0
  4 33  1  0
  5 34  1  0
  8 35  1  0
  9 36  1  0
  9 37  1  0
 10 38  1  0
 10 39  1  0
 12 40  1  0
 15 41  1  0
 15 42  1  0
 16 43  1  0
 16 44  1  0
 18 45  1  0
 18 46  1  0
 18 47  1  0
 19 48  1  0
 20 49  1  0
 20 50  1  0
 21 51  1  0
 21 52  1  0
 23 53  1  0
 26 54  1  0
 26 55  1  0
 27 56  1  0
M  END
>  <Energy>  (1) 
148.20899004381678

>  <Real charge>  (1) 
0

>  <Mult>  (1) 
1

$$$$
