mol_884 166
     RDKit          3D

 61 64  0  0  0  0  0  0  0  0999 V2000
    6.0308    0.1683    3.3111 C   0  0  0  0  0  0  0  0  0  0  0  0
    4.7977   -0.0266    2.4846 C   0  0  0  0  0  0  0  0  0  0  0  0
    4.0557    0.8758    2.1140 O   0  0  0  0  0  0  0  0  0  0  0  0
    4.6205   -1.3474    2.2039 O   0  0  0  0  0  0  0  0  0  0  0  0
    3.4734   -1.6272    1.3980 C   0  0  0  0  0  0  0  0  0  0  0  0
    3.5463   -0.9688    0.0199 C   0  0  0  0  0  0  0  0  0  0  0  0
    4.5493   -1.1085   -0.6861 O   0  0  0  0  0  0  0  0  0  0  0  0
    2.3281   -0.1262   -0.4306 C   0  0  0  0  0  0  0  0  0  0  0  0
    1.7758    0.5845    0.6793 O   0  0  0  0  0  0  0  0  0  0  0  0
    2.7193    0.9400   -1.4668 C   0  0  0  0  0  0  0  0  0  0  0  0
    1.4536    1.2105   -2.2882 C   0  0  0  0  0  0  0  0  0  0  0  0
    0.4023    0.1493   -1.8863 C   0  0  0  0  0  0  0  0  0  0  0  0
   -0.7575    0.7844   -1.0635 C   0  0  0  0  0  0  0  0  0  0  0  0
   -1.6439    1.6284   -2.0070 C   0  0  0  0  0  0  0  0  0  0  0  0
   -2.7995    2.2879   -1.2718 C   0  0  0  0  0  0  0  0  0  0  0  0
   -3.6364    1.2713   -0.5389 C   0  0  0  0  0  0  0  0  0  0  0  0
   -4.9701    1.2528   -0.7113 C   0  0  0  0  0  0  0  0  0  0  0  0
   -5.8450    0.3678    0.0907 C   0  0  0  0  0  0  0  0  0  0  0  0
   -7.0524    0.3451   -0.1344 O   0  0  0  0  0  0  0  0  0  0  0  0
   -5.2183   -0.4088    1.2176 C   0  0  0  0  0  0  0  0  0  0  0  0
   -3.8108   -0.8452    0.8375 C   0  0  0  0  0  0  0  0  0  0  0  0
   -2.8805    0.3299    0.4086 C   0  0  0  0  0  0  0  0  0  0  0  0
   -2.5044    1.1510    1.6628 C   0  0  0  0  0  0  0  0  0  0  0  0
   -1.6288   -0.2822   -0.3484 C   0  0  0  0  0  0  0  0  0  0  0  0
   -0.7635   -1.2305    0.5091 C   0  0  0  0  0  0  0  0  0  0  0  0
   -0.2242   -0.6136    1.6641 O   0  0  0  0  0  0  0  0  0  0  0  0
    0.3548   -1.8820   -0.3018 C   0  0  0  0  0  0  0  0  0  0  0  0
    1.2310   -0.9548   -1.1725 C   0  0  0  0  0  0  0  0  0  0  0  0
    1.8797   -1.8673   -2.2569 C   0  0  0  0  0  0  0  0  0  0  0  0
    5.9327   -0.3716    4.2562 H   0  0  0  0  0  0  0  0  0  0  0  0
    6.9064   -0.1796    2.7574 H   0  0  0  0  0  0  0  0  0  0  0  0
    6.1561    1.2327    3.5289 H   0  0  0  0  0  0  0  0  0  0  0  0
    3.4289   -2.7099    1.2404 H   0  0  0  0  0  0  0  0  0  0  0  0
    2.5697   -1.3474    1.9462 H   0  0  0  0  0  0  0  0  0  0  0  0
    2.5160    1.0830    1.1022 H   0  0  0  0  0  0  0  0  0  0  0  0
    3.5178    0.6052   -2.1382 H   0  0  0  0  0  0  0  0  0  0  0  0
    3.0688    1.8655   -0.9944 H   0  0  0  0  0  0  0  0  0  0  0  0
    1.6848    1.1275   -3.3569 H   0  0  0  0  0  0  0  0  0  0  0  0
    1.1117    2.2360   -2.1181 H   0  0  0  0  0  0  0  0  0  0  0  0
   -0.0431   -0.2697   -2.7993 H   0  0  0  0  0  0  0  0  0  0  0  0
   -0.3349    1.4611   -0.3123 H   0  0  0  0  0  0  0  0  0  0  0  0
   -2.0409    0.9935   -2.8105 H   0  0  0  0  0  0  0  0  0  0  0  0
   -1.0544    2.4123   -2.4945 H   0  0  0  0  0  0  0  0  0  0  0  0
   -3.4020    2.8521   -1.9942 H   0  0  0  0  0  0  0  0  0  0  0  0
   -2.4116    3.0218   -0.5550 H   0  0  0  0  0  0  0  0  0  0  0  0
   -5.4862    1.9198   -1.3932 H   0  0  0  0  0  0  0  0  0  0  0  0
   -5.8303   -1.2967    1.4108 H   0  0  0  0  0  0  0  0  0  0  0  0
   -5.2224    0.2119    2.1191 H   0  0  0  0  0  0  0  0  0  0  0  0
   -3.8926   -1.5661    0.0119 H   0  0  0  0  0  0  0  0  0  0  0  0
   -3.3781   -1.3918    1.6839 H   0  0  0  0  0  0  0  0  0  0  0  0
   -1.6801    1.8451    1.4719 H   0  0  0  0  0  0  0  0  0  0  0  0
   -2.2139    0.5077    2.4992 H   0  0  0  0  0  0  0  0  0  0  0  0
   -3.3499    1.7526    2.0186 H   0  0  0  0  0  0  0  0  0  0  0  0
   -2.0408   -0.9095   -1.1563 H   0  0  0  0  0  0  0  0  0  0  0  0
   -1.3926   -2.0461    0.8809 H   0  0  0  0  0  0  0  0  0  0  0  0
    0.4224    0.0632    1.3683 H   0  0  0  0  0  0  0  0  0  0  0  0
   -0.1354   -2.6108   -0.9630 H   0  0  0  0  0  0  0  0  0  0  0  0
    0.9960   -2.4682    0.3663 H   0  0  0  0  0  0  0  0  0  0  0  0
    2.5466   -1.3217   -2.9310 H   0  0  0  0  0  0  0  0  0  0  0  0
    1.1109   -2.3349   -2.8838 H   0  0  0  0  0  0  0  0  0  0  0  0
    2.4574   -2.6776   -1.7985 H   0  0  0  0  0  0  0  0  0  0  0  0
  1  2  1  0
  2  3  2  0
  2  4  1  0
  4  5  1  0
  5  6  1  0
  6  7  2  0
  6  8  1  0
  8  9  1  0
  8 10  1  0
 10 11  1  0
 11 12  1  0
 12 13  1  0
 13 14  1  0
 14 15  1  0
 15 16  1  0
 16 17  2  0
 17 18  1  0
 18 19  2  0
 18 20  1  0
 20 21  1  0
 21 22  1  0
 22 23  1  0
 22 24  1  0
 24 25  1  0
 25 26  1  0
 25 27  1  0
 27 28  1  0
 28 29  1  0
 28  8  1  0
 28 12  1  0
 24 13  1  0
 22 16  1  0
  1 30  1  0
  1 31  1  0
  1 32  1  0
  5 33  1  0
  5 34  1  0
  9 35  1  0
 10 36  1  0
 10 37  1  0
 11 38  1  0
 11 39  1  0
 12 40  1  0
 13 41  1  0
 14 42  1  0
 14 43  1  0
 15 44  1  0
 15 45  1  0
 17 46  1  0
 20 47  1  0
 20 48  1  0
 21 49  1  0
 21 50  1  0
 23 51  1  0
 23 52  1  0
 23 53  1  0
 24 54  1  0
 25 55  1  0
 26 56  1  0
 27 57  1  0
 27 58  1  0
 29 59  1  0
 29 60  1  0
 29 61  1  0
M  END
>  <Energy>  (1) 
97.07915455995713

>  <Real charge>  (1) 
0

>  <Mult>  (1) 
1

$$$$
mol_884 38
     RDKit          3D

 61 64  0  0  0  0  0  0  0  0999 V2000
    7.7162   -0.7764   -1.0151 C   0  0  0  0  0  0  0  0  0  0  0  0
    6.3480   -0.5303   -0.4592 C   0  0  0  0  0  0  0  0  0  0  0  0
    5.7328   -1.3142    0.2540 O   0  0  0  0  0  0  0  0  0  0  0  0
    5.8875    0.6876   -0.8587 O   0  0  0  0  0  0  0  0  0  0  0  0
    4.5700    0.9943   -0.3975 C   0  0  0  0  0  0  0  0  0  0  0  0
    3.5182    0.0219   -0.9300 C   0  0  0  0  0  0  0  0  0  0  0  0
    3.4506   -0.2250   -2.1379 O   0  0  0  0  0  0  0  0  0  0  0  0
    2.5597   -0.6202    0.0995 C   0  0  0  0  0  0  0  0  0  0  0  0
    3.2404   -0.8819    1.3306 O   0  0  0  0  0  0  0  0  0  0  0  0
    1.9996   -1.9712   -0.3873 C   0  0  0  0  0  0  0  0  0  0  0  0
    0.5760   -2.0752    0.1718 C   0  0  0  0  0  0  0  0  0  0  0  0
    0.3431   -0.8082    1.0098 C   0  0  0  0  0  0  0  0  0  0  0  0
   -1.1281   -0.3557    1.1325 C   0  0  0  0  0  0  0  0  0  0  0  0
   -1.9950   -1.4885    1.6987 C   0  0  0  0  0  0  0  0  0  0  0  0
   -3.4098   -1.0079    1.9713 C   0  0  0  0  0  0  0  0  0  0  0  0
   -4.0401   -0.4404    0.7241 C   0  0  0  0  0  0  0  0  0  0  0  0
   -5.2451   -0.8976    0.3384 C   0  0  0  0  0  0  0  0  0  0  0  0
   -5.9781   -0.3034   -0.7997 C   0  0  0  0  0  0  0  0  0  0  0  0
   -7.0496   -0.7901   -1.1509 O   0  0  0  0  0  0  0  0  0  0  0  0
   -5.4114    0.9404   -1.4225 C   0  0  0  0  0  0  0  0  0  0  0  0
   -3.8896    0.8900   -1.4211 C   0  0  0  0  0  0  0  0  0  0  0  0
   -3.2520    0.6563   -0.0163 C   0  0  0  0  0  0  0  0  0  0  0  0
   -3.3703    1.9636    0.8005 C   0  0  0  0  0  0  0  0  0  0  0  0
   -1.7324    0.2049   -0.1882 C   0  0  0  0  0  0  0  0  0  0  0  0
   -0.7852    1.2931   -0.7582 C   0  0  0  0  0  0  0  0  0  0  0  0
   -1.2105    1.7391   -2.0416 O   0  0  0  0  0  0  0  0  0  0  0  0
    0.6573    0.7970   -0.9189 C   0  0  0  0  0  0  0  0  0  0  0  0
    1.2863    0.2418    0.3779 C   0  0  0  0  0  0  0  0  0  0  0  0
    1.5621    1.3958    1.3609 C   0  0  0  0  0  0  0  0  0  0  0  0
    7.6795   -0.7666   -2.1072 H   0  0  0  0  0  0  0  0  0  0  0  0
    8.0690   -1.7583   -0.6870 H   0  0  0  0  0  0  0  0  0  0  0  0
    8.4086   -0.0158   -0.6457 H   0  0  0  0  0  0  0  0  0  0  0  0
    4.3079    1.9916   -0.7662 H   0  0  0  0  0  0  0  0  0  0  0  0
    4.5720    1.0501    0.6948 H   0  0  0  0  0  0  0  0  0  0  0  0
    4.0387   -1.4174    1.1212 H   0  0  0  0  0  0  0  0  0  0  0  0
    1.9547   -2.0442   -1.4794 H   0  0  0  0  0  0  0  0  0  0  0  0
    2.6051   -2.8143   -0.0347 H   0  0  0  0  0  0  0  0  0  0  0  0
    0.4619   -2.9761    0.7848 H   0  0  0  0  0  0  0  0  0  0  0  0
   -0.1331   -2.1608   -0.6579 H   0  0  0  0  0  0  0  0  0  0  0  0
    0.6978   -1.0303    2.0278 H   0  0  0  0  0  0  0  0  0  0  0  0
   -1.1364    0.4558    1.8724 H   0  0  0  0  0  0  0  0  0  0  0  0
   -2.0270   -2.3355    1.0021 H   0  0  0  0  0  0  0  0  0  0  0  0
   -1.5592   -1.8608    2.6338 H   0  0  0  0  0  0  0  0  0  0  0  0
   -3.9956   -1.8449    2.3709 H   0  0  0  0  0  0  0  0  0  0  0  0
   -3.3999   -0.2395    2.7537 H   0  0  0  0  0  0  0  0  0  0  0  0
   -5.7748   -1.6832    0.8665 H   0  0  0  0  0  0  0  0  0  0  0  0
   -5.7676    1.0052   -2.4567 H   0  0  0  0  0  0  0  0  0  0  0  0
   -5.7893    1.8108   -0.8770 H   0  0  0  0  0  0  0  0  0  0  0  0
   -3.5396    1.8317   -1.8560 H   0  0  0  0  0  0  0  0  0  0  0  0
   -3.5752    0.0872   -2.1021 H   0  0  0  0  0  0  0  0  0  0  0  0
   -2.8388    1.9063    1.7553 H   0  0  0  0  0  0  0  0  0  0  0  0
   -2.9648    2.8191    0.2500 H   0  0  0  0  0  0  0  0  0  0  0  0
   -4.4153    2.2001    1.0327 H   0  0  0  0  0  0  0  0  0  0  0  0
   -1.7497   -0.6178   -0.9183 H   0  0  0  0  0  0  0  0  0  0  0  0
   -0.7890    2.1713   -0.1061 H   0  0  0  0  0  0  0  0  0  0  0  0
   -1.1316    0.9968   -2.6666 H   0  0  0  0  0  0  0  0  0  0  0  0
    0.6701    0.0388   -1.7131 H   0  0  0  0  0  0  0  0  0  0  0  0
    1.2689    1.6199   -1.3133 H   0  0  0  0  0  0  0  0  0  0  0  0
    0.6505    1.9422    1.6204 H   0  0  0  0  0  0  0  0  0  0  0  0
    2.2616    2.1198    0.9311 H   0  0  0  0  0  0  0  0  0  0  0  0
    1.9901    1.0372    2.3029 H   0  0  0  0  0  0  0  0  0  0  0  0
  1  2  1  0
  2  3  2  0
  2  4  1  0
  4  5  1  0
  5  6  1  0
  6  7  2  0
  6  8  1  0
  8  9  1  0
  8 10  1  0
 10 11  1  0
 11 12  1  0
 12 13  1  0
 13 14  1  0
 14 15  1  0
 15 16  1  0
 16 17  2  0
 17 18  1  0
 18 19  2  0
 18 20  1  0
 20 21  1  0
 21 22  1  0
 22 23  1  0
 22 24  1  0
 24 25  1  0
 25 26  1  0
 25 27  1  0
 27 28  1  0
 28 29  1  0
 28  8  1  0
 28 12  1  0
 24 13  1  0
 22 16  1  0
  1 30  1  0
  1 31  1  0
  1 32  1  0
  5 33  1  0
  5 34  1  0
  9 35  1  0
 10 36  1  0
 10 37  1  0
 11 38  1  0
 11 39  1  0
 12 40  1  0
 13 41  1  0
 14 42  1  0
 14 43  1  0
 15 44  1  0
 15 45  1  0
 17 46  1  0
 20 47  1  0
 20 48  1  0
 21 49  1  0
 21 50  1  0
 23 51  1  0
 23 52  1  0
 23 53  1  0
 24 54  1  0
 25 55  1  0
 26 56  1  0
 27 57  1  0
 27 58  1  0
 29 59  1  0
 29 60  1  0
 29 61  1  0
M  END
>  <Energy>  (2) 
97.42753572150649

>  <Real charge>  (2) 
0

>  <Mult>  (2) 
1

$$$$
mol_884 94
     RDKit          3D

 61 64  0  0  0  0  0  0  0  0999 V2000
    7.5670    1.0786   -0.1112 C   0  0  0  0  0  0  0  0  0  0  0  0
    6.2947    0.3279    0.1321 C   0  0  0  0  0  0  0  0  0  0  0  0
    5.5515    0.5063    1.0900 O   0  0  0  0  0  0  0  0  0  0  0  0
    6.0855   -0.5807   -0.8625 O   0  0  0  0  0  0  0  0  0  0  0  0
    4.8688   -1.3185   -0.7276 C   0  0  0  0  0  0  0  0  0  0  0  0
    3.6272   -0.4227   -0.7484 C   0  0  0  0  0  0  0  0  0  0  0  0
    3.5575    0.5307   -1.5268 O   0  0  0  0  0  0  0  0  0  0  0  0
    2.5275   -0.7555    0.2814 C   0  0  0  0  0  0  0  0  0  0  0  0
    3.1320   -0.8276    1.5817 O   0  0  0  0  0  0  0  0  0  0  0  0
    1.9287   -2.1440    0.0080 C   0  0  0  0  0  0  0  0  0  0  0  0
    0.5022   -2.1098    0.5689 C   0  0  0  0  0  0  0  0  0  0  0  0
    0.2913   -0.6940    1.1359 C   0  0  0  0  0  0  0  0  0  0  0  0
   -1.1668   -0.1905    1.1400 C   0  0  0  0  0  0  0  0  0  0  0  0
   -2.0661   -1.1594    1.9196 C   0  0  0  0  0  0  0  0  0  0  0  0
   -3.4732   -0.6058    2.0580 C   0  0  0  0  0  0  0  0  0  0  0  0
   -4.0743   -0.3121    0.7067 C   0  0  0  0  0  0  0  0  0  0  0  0
   -5.2818   -0.8232    0.4064 C   0  0  0  0  0  0  0  0  0  0  0  0
   -5.9863   -0.4784   -0.8466 C   0  0  0  0  0  0  0  0  0  0  0  0
   -7.0669   -1.0055   -1.0985 O   0  0  0  0  0  0  0  0  0  0  0  0
   -5.3835    0.5865   -1.7176 C   0  0  0  0  0  0  0  0  0  0  0  0
   -3.8634    0.5153   -1.6736 C   0  0  0  0  0  0  0  0  0  0  0  0
   -3.2535    0.5850   -0.2389 C   0  0  0  0  0  0  0  0  0  0  0  0
   -3.3631    2.0400    0.2722 C   0  0  0  0  0  0  0  0  0  0  0  0
   -1.7385    0.0884   -0.2782 C   0  0  0  0  0  0  0  0  0  0  0  0
   -0.7624    1.0199   -1.0412 C   0  0  0  0  0  0  0  0  0  0  0  0
   -1.1672    1.1579   -2.4002 O   0  0  0  0  0  0  0  0  0  0  0  0
    0.6757    0.4842   -1.0633 C   0  0  0  0  0  0  0  0  0  0  0  0
    1.2782    0.1846    0.3292 C   0  0  0  0  0  0  0  0  0  0  0  0
    1.5790    1.5039    1.0638 C   0  0  0  0  0  0  0  0  0  0  0  0
    7.5037    1.6170   -1.0601 H   0  0  0  0  0  0  0  0  0  0  0  0
    7.7179    1.8053    0.6923 H   0  0  0  0  0  0  0  0  0  0  0  0
    8.4114    0.3849   -0.1171 H   0  0  0  0  0  0  0  0  0  0  0  0
    4.9176   -1.9256    0.1817 H   0  0  0  0  0  0  0  0  0  0  0  0
    4.7932   -2.0053   -1.5767 H   0  0  0  0  0  0  0  0  0  0  0  0
    3.7379   -0.0606    1.6829 H   0  0  0  0  0  0  0  0  0  0  0  0
    2.5037   -2.9431    0.4903 H   0  0  0  0  0  0  0  0  0  0  0  0
    1.8956   -2.3674   -1.0650 H   0  0  0  0  0  0  0  0  0  0  0  0
    0.3735   -2.8640    1.3533 H   0  0  0  0  0  0  0  0  0  0  0  0
   -0.2066   -2.3535   -0.2288 H   0  0  0  0  0  0  0  0  0  0  0  0
    0.6217   -0.7193    2.1856 H   0  0  0  0  0  0  0  0  0  0  0  0
   -1.1617    0.7599    1.6907 H   0  0  0  0  0  0  0  0  0  0  0  0
   -1.6512   -1.3308    2.9204 H   0  0  0  0  0  0  0  0  0  0  0  0
   -2.1070   -2.1354    1.4201 H   0  0  0  0  0  0  0  0  0  0  0  0
   -3.4571    0.3139    2.6551 H   0  0  0  0  0  0  0  0  0  0  0  0
   -4.0818   -1.3254    2.6193 H   0  0  0  0  0  0  0  0  0  0  0  0
   -5.8343   -1.4671    1.0821 H   0  0  0  0  0  0  0  0  0  0  0  0
   -5.7531    1.5622   -1.3865 H   0  0  0  0  0  0  0  0  0  0  0  0
   -5.7208    0.4259   -2.7476 H   0  0  0  0  0  0  0  0  0  0  0  0
   -3.4892    1.3341   -2.2964 H   0  0  0  0  0  0  0  0  0  0  0  0
   -3.5528   -0.4214   -2.1565 H   0  0  0  0  0  0  0  0  0  0  0  0
   -2.8438    2.1849    1.2246 H   0  0  0  0  0  0  0  0  0  0  0  0
   -4.4074    2.3334    0.4316 H   0  0  0  0  0  0  0  0  0  0  0  0
   -2.9387    2.7508   -0.4448 H   0  0  0  0  0  0  0  0  0  0  0  0
   -1.7576   -0.8677   -0.8216 H   0  0  0  0  0  0  0  0  0  0  0  0
   -0.7710    2.0198   -0.5965 H   0  0  0  0  0  0  0  0  0  0  0  0
   -0.5309    1.7483   -2.8417 H   0  0  0  0  0  0  0  0  0  0  0  0
    1.2910    1.2230   -1.5909 H   0  0  0  0  0  0  0  0  0  0  0  0
    0.7010   -0.4070   -1.7036 H   0  0  0  0  0  0  0  0  0  0  0  0
    2.3671    2.0649    0.5503 H   0  0  0  0  0  0  0  0  0  0  0  0
    0.6993    2.1516    1.1234 H   0  0  0  0  0  0  0  0  0  0  0  0
    1.9105    1.3322    2.0934 H   0  0  0  0  0  0  0  0  0  0  0  0
  1  2  1  0
  2  3  2  0
  2  4  1  0
  4  5  1  0
  5  6  1  0
  6  7  2  0
  6  8  1  0
  8  9  1  0
  8 10  1  0
 10 11  1  0
 11 12  1  0
 12 13  1  0
 13 14  1  0
 14 15  1  0
 15 16  1  0
 16 17  2  0
 17 18  1  0
 18 19  2  0
 18 20  1  0
 20 21  1  0
 21 22  1  0
 22 23  1  0
 22 24  1  0
 24 25  1  0
 25 26  1  0
 25 27  1  0
 27 28  1  0
 28 29  1  0
 28  8  1  0
 28 12  1  0
 24 13  1  0
 22 16  1  0
  1 30  1  0
  1 31  1  0
  1 32  1  0
  5 33  1  0
  5 34  1  0
  9 35  1  0
 10 36  1  0
 10 37  1  0
 11 38  1  0
 11 39  1  0
 12 40  1  0
 13 41  1  0
 14 42  1  0
 14 43  1  0
 15 44  1  0
 15 45  1  0
 17 46  1  0
 20 47  1  0
 20 48  1  0
 21 49  1  0
 21 50  1  0
 23 51  1  0
 23 52  1  0
 23 53  1  0
 24 54  1  0
 25 55  1  0
 26 56  1  0
 27 57  1  0
 27 58  1  0
 29 59  1  0
 29 60  1  0
 29 61  1  0
M  END
>  <Energy>  (3) 
97.58633786993059

>  <Real charge>  (3) 
0

>  <Mult>  (3) 
1

$$$$
