mol_859 203
     RDKit          3D

 36 38  0  0  0  0  0  0  0  0999 V2000
    0.3381   -2.5037    2.1575 C   0  0  0  0  0  0  0  0  0  0  0  0
    1.1849   -2.0050    0.9859 C   0  0  0  0  0  0  0  0  0  0  0  0
    0.8816   -0.5943    0.6644 N   0  0  0  0  0  0  0  0  0  0  0  0
   -0.3897   -0.3908    0.0746 C   0  0  0  0  0  0  0  0  0  0  0  0
   -1.0567   -1.4784   -0.3992 N   0  0  0  0  0  0  0  0  0  0  0  0
   -2.3008   -1.3549   -0.9000 C   0  0  0  0  0  0  0  0  0  0  0  0
   -2.9642   -2.5957   -1.4154 C   0  0  0  0  0  0  0  0  0  0  0  0
   -2.9545   -0.1406   -0.9343 C   0  0  0  0  0  0  0  0  0  0  0  0
   -2.3041    0.9987   -0.4406 C   0  0  0  0  0  0  0  0  0  0  0  0
   -3.0267    2.3152   -0.5304 C   0  0  0  0  0  0  0  0  0  0  0  0
   -4.3832    2.1860   -0.5036 F   0  0  0  0  0  0  0  0  0  0  0  0
   -2.7219    3.1705    0.4866 F   0  0  0  0  0  0  0  0  0  0  0  0
   -2.7397    2.9842   -1.6799 F   0  0  0  0  0  0  0  0  0  0  0  0
   -0.9852    0.8851    0.0483 C   0  0  0  0  0  0  0  0  0  0  0  0
   -0.3643    2.0400    0.5641 N   0  0  0  0  0  0  0  0  0  0  0  0
    0.9581    2.3445    0.7435 C   0  0  0  0  0  0  0  0  0  0  0  0
    1.2418    3.4245    1.2650 O   0  0  0  0  0  0  0  0  0  0  0  0
    2.0414    1.5067    0.2085 C   0  0  0  0  0  0  0  0  0  0  0  0
    3.1967    2.1723   -0.2391 C   0  0  0  0  0  0  0  0  0  0  0  0
    4.2807    1.4476   -0.7107 C   0  0  0  0  0  0  0  0  0  0  0  0
    4.1764    0.0749   -0.7037 C   0  0  0  0  0  0  0  0  0  0  0  0
    3.0843   -0.5883   -0.2645 N   0  0  0  0  0  0  0  0  0  0  0  0
    2.0074    0.1161    0.1913 C   0  0  0  0  0  0  0  0  0  0  0  0
   -0.7287   -2.5410    1.9212 H   0  0  0  0  0  0  0  0  0  0  0  0
    0.4638   -1.8539    3.0303 H   0  0  0  0  0  0  0  0  0  0  0  0
    0.6492   -3.5149    2.4395 H   0  0  0  0  0  0  0  0  0  0  0  0
    1.0804   -2.6611    0.1120 H   0  0  0  0  0  0  0  0  0  0  0  0
    2.2220   -2.1128    1.3324 H   0  0  0  0  0  0  0  0  0  0  0  0
   -2.3012   -3.4614   -1.3176 H   0  0  0  0  0  0  0  0  0  0  0  0
   -3.8773   -2.7998   -0.8478 H   0  0  0  0  0  0  0  0  0  0  0  0
   -3.2168   -2.4780   -2.4738 H   0  0  0  0  0  0  0  0  0  0  0  0
   -3.9608   -0.0749   -1.3421 H   0  0  0  0  0  0  0  0  0  0  0  0
   -0.9482    2.8372    0.8071 H   0  0  0  0  0  0  0  0  0  0  0  0
    3.2482    3.2591   -0.2121 H   0  0  0  0  0  0  0  0  0  0  0  0
    5.1793    1.9408   -1.0626 H   0  0  0  0  0  0  0  0  0  0  0  0
    4.9896   -0.5538   -1.0551 H   0  0  0  0  0  0  0  0  0  0  0  0
  1  2  1  0
  2  3  1  0
  3  4  1  0
  4  5  2  0
  5  6  1  0
  6  7  1  0
  6  8  2  0
  8  9  1  0
  9 10  1  0
 10 11  1  0
 10 12  1  0
 10 13  1  0
  9 14  2  0
 14 15  1  0
 15 16  1  0
 16 17  2  0
 16 18  1  0
 18 19  2  0
 19 20  1  0
 20 21  2  0
 21 22  1  0
 22 23  2  0
 14  4  1  0
 23  3  1  0
 23 18  1  0
  1 24  1  0
  1 25  1  0
  1 26  1  0
  2 27  1  0
  2 28  1  0
  7 29  1  0
  7 30  1  0
  7 31  1  0
  8 32  1  0
 15 33  1  0
 19 34  1  0
 20 35  1  0
 21 36  1  0
M  END
>  <Energy>  (1) 
40.59596663403537

>  <Real charge>  (1) 
0

>  <Mult>  (1) 
1

$$$$
mol_859 201
     RDKit          3D

 36 38  0  0  0  0  0  0  0  0999 V2000
    2.2844   -1.9748   -2.0089 C   0  0  0  0  0  0  0  0  0  0  0  0
    1.0900   -1.9519   -1.0540 C   0  0  0  0  0  0  0  0  0  0  0  0
    0.8165   -0.5845   -0.5629 N   0  0  0  0  0  0  0  0  0  0  0  0
   -0.5562   -0.3525   -0.2956 C   0  0  0  0  0  0  0  0  0  0  0  0
   -1.3856   -1.4295   -0.2205 N   0  0  0  0  0  0  0  0  0  0  0  0
   -2.7102   -1.2625   -0.0429 C   0  0  0  0  0  0  0  0  0  0  0  0
   -3.5564   -2.4960    0.0470 C   0  0  0  0  0  0  0  0  0  0  0  0
   -3.2807   -0.0095    0.0461 C   0  0  0  0  0  0  0  0  0  0  0  0
   -2.4593    1.1227   -0.0442 C   0  0  0  0  0  0  0  0  0  0  0  0
   -3.1058    2.4738    0.0979 C   0  0  0  0  0  0  0  0  0  0  0  0
   -4.4095    2.4897   -0.2991 F   0  0  0  0  0  0  0  0  0  0  0  0
   -2.4907    3.4475   -0.6318 F   0  0  0  0  0  0  0  0  0  0  0  0
   -3.1038    2.9142    1.3852 F   0  0  0  0  0  0  0  0  0  0  0  0
   -1.0655    0.9565   -0.1891 C   0  0  0  0  0  0  0  0  0  0  0  0
   -0.2656    2.1106   -0.3066 N   0  0  0  0  0  0  0  0  0  0  0  0
    1.0707    2.3038   -0.0808 C   0  0  0  0  0  0  0  0  0  0  0  0
    1.5449    3.4187   -0.3065 O   0  0  0  0  0  0  0  0  0  0  0  0
    1.9186    1.2855    0.5557 C   0  0  0  0  0  0  0  0  0  0  0  0
    2.9412    1.7491    1.4026 C   0  0  0  0  0  0  0  0  0  0  0  0
    3.8111    0.8509    2.0018 C   0  0  0  0  0  0  0  0  0  0  0  0
    3.6356   -0.4850    1.7197 C   0  0  0  0  0  0  0  0  0  0  0  0
    2.6713   -0.9537    0.8976 N   0  0  0  0  0  0  0  0  0  0  0  0
    1.8038   -0.0789    0.3108 C   0  0  0  0  0  0  0  0  0  0  0  0
    2.4016   -2.9759   -2.4366 H   0  0  0  0  0  0  0  0  0  0  0  0
    3.2243   -1.7161   -1.5139 H   0  0  0  0  0  0  0  0  0  0  0  0
    2.1354   -1.2687   -2.8329 H   0  0  0  0  0  0  0  0  0  0  0  0
    1.2256   -2.6671   -0.2323 H   0  0  0  0  0  0  0  0  0  0  0  0
    0.2512   -2.3248   -1.6576 H   0  0  0  0  0  0  0  0  0  0  0  0
   -4.0793   -2.5270    1.0079 H   0  0  0  0  0  0  0  0  0  0  0  0
   -2.9409   -3.3977   -0.0351 H   0  0  0  0  0  0  0  0  0  0  0  0
   -4.2915   -2.5101   -0.7637 H   0  0  0  0  0  0  0  0  0  0  0  0
   -4.3548    0.0913    0.1862 H   0  0  0  0  0  0  0  0  0  0  0  0
   -0.7170    2.9916   -0.5424 H   0  0  0  0  0  0  0  0  0  0  0  0
    3.0585    2.8153    1.5874 H   0  0  0  0  0  0  0  0  0  0  0  0
    4.6043    1.1867    2.6597 H   0  0  0  0  0  0  0  0  0  0  0  0
    4.2837   -1.2421    2.1519 H   0  0  0  0  0  0  0  0  0  0  0  0
  1  2  1  0
  2  3  1  0
  3  4  1  0
  4  5  2  0
  5  6  1  0
  6  7  1  0
  6  8  2  0
  8  9  1  0
  9 10  1  0
 10 11  1  0
 10 12  1  0
 10 13  1  0
  9 14  2  0
 14 15  1  0
 15 16  1  0
 16 17  2  0
 16 18  1  0
 18 19  2  0
 19 20  1  0
 20 21  2  0
 21 22  1  0
 22 23  2  0
 14  4  1  0
 23  3  1  0
 23 18  1  0
  1 24  1  0
  1 25  1  0
  1 26  1  0
  2 27  1  0
  2 28  1  0
  7 29  1  0
  7 30  1  0
  7 31  1  0
  8 32  1  0
 15 33  1  0
 19 34  1  0
 20 35  1  0
 21 36  1  0
M  END
>  <Energy>  (2) 
40.64512861818783

>  <Real charge>  (2) 
0

>  <Mult>  (2) 
1

$$$$
mol_859 96
     RDKit          3D

 36 38  0  0  0  0  0  0  0  0999 V2000
   -1.7872    2.6144    0.3928 C   0  0  0  0  0  0  0  0  0  0  0  0
   -1.4039    1.8236   -0.8582 C   0  0  0  0  0  0  0  0  0  0  0  0
   -0.8931    0.4597   -0.5622 N   0  0  0  0  0  0  0  0  0  0  0  0
    0.4718    0.4197   -0.2237 C   0  0  0  0  0  0  0  0  0  0  0  0
    1.0714    1.6308   -0.0224 N   0  0  0  0  0  0  0  0  0  0  0  0
    2.3657    1.7437    0.3266 C   0  0  0  0  0  0  0  0  0  0  0  0
    2.9070    3.1228    0.5460 C   0  0  0  0  0  0  0  0  0  0  0  0
    3.1628    0.6378    0.4852 C   0  0  0  0  0  0  0  0  0  0  0  0
    2.6085   -0.6260    0.2526 C   0  0  0  0  0  0  0  0  0  0  0  0
    3.5048   -1.8183    0.4716 C   0  0  0  0  0  0  0  0  0  0  0  0
    4.8282   -1.5359    0.3076 F   0  0  0  0  0  0  0  0  0  0  0  0
    3.2463   -2.8529   -0.3776 F   0  0  0  0  0  0  0  0  0  0  0  0
    3.3865   -2.3280    1.7275 F   0  0  0  0  0  0  0  0  0  0  0  0
    1.2392   -0.7472   -0.1088 C   0  0  0  0  0  0  0  0  0  0  0  0
    0.7854   -2.0377   -0.4103 N   0  0  0  0  0  0  0  0  0  0  0  0
   -0.4418   -2.5711   -0.6364 C   0  0  0  0  0  0  0  0  0  0  0  0
   -0.4683   -3.7513   -0.9988 O   0  0  0  0  0  0  0  0  0  0  0  0
   -1.7078   -1.8753   -0.3922 C   0  0  0  0  0  0  0  0  0  0  0  0
   -2.8230   -2.7282   -0.2060 C   0  0  0  0  0  0  0  0  0  0  0  0
   -4.1000   -2.2181   -0.0476 C   0  0  0  0  0  0  0  0  0  0  0  0
   -4.2293   -0.8562   -0.0967 C   0  0  0  0  0  0  0  0  0  0  0  0
   -3.1825   -0.0236   -0.2758 N   0  0  0  0  0  0  0  0  0  0  0  0
   -1.9046   -0.5025   -0.4077 C   0  0  0  0  0  0  0  0  0  0  0  0
   -0.9377    2.7619    1.0654 H   0  0  0  0  0  0  0  0  0  0  0  0
   -2.5745    2.1204    0.9690 H   0  0  0  0  0  0  0  0  0  0  0  0
   -2.1576    3.6038    0.1052 H   0  0  0  0  0  0  0  0  0  0  0  0
   -2.2666    1.7785   -1.5379 H   0  0  0  0  0  0  0  0  0  0  0  0
   -0.6697    2.3973   -1.4412 H   0  0  0  0  0  0  0  0  0  0  0  0
    3.2587    3.2317    1.5766 H   0  0  0  0  0  0  0  0  0  0  0  0
    3.7372    3.3173   -0.1401 H   0  0  0  0  0  0  0  0  0  0  0  0
    2.1340    3.8775    0.3681 H   0  0  0  0  0  0  0  0  0  0  0  0
    4.2034    0.7499    0.7800 H   0  0  0  0  0  0  0  0  0  0  0  0
    1.4814   -2.7702   -0.5350 H   0  0  0  0  0  0  0  0  0  0  0  0
   -2.6912   -3.8098   -0.1959 H   0  0  0  0  0  0  0  0  0  0  0  0
   -4.9572   -2.8652    0.0932 H   0  0  0  0  0  0  0  0  0  0  0  0
   -5.1961   -0.3730    0.0071 H   0  0  0  0  0  0  0  0  0  0  0  0
  1  2  1  0
  2  3  1  0
  3  4  1  0
  4  5  2  0
  5  6  1  0
  6  7  1  0
  6  8  2  0
  8  9  1  0
  9 10  1  0
 10 11  1  0
 10 12  1  0
 10 13  1  0
  9 14  2  0
 14 15  1  0
 15 16  1  0
 16 17  2  0
 16 18  1  0
 18 19  2  0
 19 20  1  0
 20 21  2  0
 21 22  1  0
 22 23  2  0
 14  4  1  0
 23  3  1  0
 23 18  1  0
  1 24  1  0
  1 25  1  0
  1 26  1  0
  2 27  1  0
  2 28  1  0
  7 29  1  0
  7 30  1  0
  7 31  1  0
  8 32  1  0
 15 33  1  0
 19 34  1  0
 20 35  1  0
 21 36  1  0
M  END
>  <Energy>  (3) 
41.09972047759112

>  <Real charge>  (3) 
0

>  <Mult>  (3) 
1

$$$$
