mol_1039 163
     RDKit          3D

 24 25  0  0  0  0  0  0  0  0999 V2000
    3.1422   -1.1092   -0.0553 C   0  0  0  0  0  0  0  0  0  0  0  0
    2.1564   -0.0696    0.0972 N   0  0  0  0  0  0  0  0  0  0  0  0
    2.4071    1.2498    0.3678 C   0  0  0  0  0  0  0  0  0  0  0  0
    1.2928    1.9500    0.4474 N   0  0  0  0  0  0  0  0  0  0  0  0
    0.3043    1.0410    0.2190 C   0  0  0  0  0  0  0  0  0  0  0  0
   -1.0452    1.2974    0.1998 N   0  0  0  0  0  0  0  0  0  0  0  0
   -1.5331    2.6435    0.4378 C   0  0  0  0  0  0  0  0  0  0  0  0
   -1.9351    0.2523   -0.0501 C   0  0  0  0  0  0  0  0  0  0  0  0
   -3.1570    0.4282   -0.0785 O   0  0  0  0  0  0  0  0  0  0  0  0
   -1.3819   -1.0266   -0.2716 N   0  0  0  0  0  0  0  0  0  0  0  0
   -2.3256   -2.0966   -0.5291 C   0  0  0  0  0  0  0  0  0  0  0  0
   -0.0191   -1.3379   -0.2624 C   0  0  0  0  0  0  0  0  0  0  0  0
    0.4393   -2.4596   -0.4580 O   0  0  0  0  0  0  0  0  0  0  0  0
    0.8015   -0.2078    0.0006 C   0  0  0  0  0  0  0  0  0  0  0  0
    2.9614   -1.8744    0.7036 H   0  0  0  0  0  0  0  0  0  0  0  0
    3.0520   -1.5299   -1.0599 H   0  0  0  0  0  0  0  0  0  0  0  0
    4.1414   -0.6867    0.0785 H   0  0  0  0  0  0  0  0  0  0  0  0
    3.4073    1.6444    0.4963 H   0  0  0  0  0  0  0  0  0  0  0  0
   -1.1190    3.3133   -0.3226 H   0  0  0  0  0  0  0  0  0  0  0  0
   -2.6239    2.6961    0.3920 H   0  0  0  0  0  0  0  0  0  0  0  0
   -1.2090    2.9707    1.4308 H   0  0  0  0  0  0  0  0  0  0  0  0
   -1.8356   -3.0596   -0.6921 H   0  0  0  0  0  0  0  0  0  0  0  0
   -3.0054   -2.1844    0.3248 H   0  0  0  0  0  0  0  0  0  0  0  0
   -2.9160   -1.8443   -1.4161 H   0  0  0  0  0  0  0  0  0  0  0  0
  1  2  1  0
  2  3  1  0
  3  4  2  0
  4  5  1  0
  5  6  1  0
  6  7  1  0
  6  8  1  0
  8  9  2  0
  8 10  1  0
 10 11  1  0
 10 12  1  0
 12 13  2  0
 12 14  1  0
 14  2  1  0
 14  5  2  0
  1 15  1  0
  1 16  1  0
  1 17  1  0
  3 18  1  0
  7 19  1  0
  7 20  1  0
  7 21  1  0
 11 22  1  0
 11 23  1  0
 11 24  1  0
M  END
>  <Energy>  (1) 
-122.52841057575596

>  <Real charge>  (1) 
0

>  <Mult>  (1) 
1

$$$$
