mol_265 56
     RDKit          3D

 24 24  0  0  0  0  0  0  0  0999 V2000
   -3.4308   -1.3527   -0.6095 C   0  0  0  0  0  0  0  0  0  0  0  0
   -2.4432   -0.3115   -0.3767 N   0  0  0  0  0  0  0  0  0  0  0  0
   -2.8230    1.0174   -0.8395 C   0  0  0  0  0  0  0  0  0  0  0  0
   -1.1150   -0.7284   -0.2338 C   0  0  0  0  0  0  0  0  0  0  0  0
   -0.7922   -1.9058   -0.3674 O   0  0  0  0  0  0  0  0  0  0  0  0
   -0.2465    0.2878    0.0992 N   0  0  0  0  0  0  0  0  0  0  0  0
    1.1600    0.2249    0.1573 C   0  0  0  0  0  0  0  0  0  0  0  0
    1.8275    1.2913    0.7748 C   0  0  0  0  0  0  0  0  0  0  0  0
    3.2234    1.3064    0.8564 C   0  0  0  0  0  0  0  0  0  0  0  0
    3.9586    0.2564    0.3135 C   0  0  0  0  0  0  0  0  0  0  0  0
    5.6756    0.2736    0.4111 Cl  0  0  0  0  0  0  0  0  0  0  0  0
    3.3089   -0.8036   -0.3120 C   0  0  0  0  0  0  0  0  0  0  0  0
    1.9118   -0.8167   -0.3928 C   0  0  0  0  0  0  0  0  0  0  0  0
   -4.4112   -1.0060   -0.2701 H   0  0  0  0  0  0  0  0  0  0  0  0
   -3.1749   -2.2650   -0.0622 H   0  0  0  0  0  0  0  0  0  0  0  0
   -3.4656   -1.5762   -1.6801 H   0  0  0  0  0  0  0  0  0  0  0  0
   -2.9940    0.9709   -1.9199 H   0  0  0  0  0  0  0  0  0  0  0  0
   -2.0596    1.7739   -0.6533 H   0  0  0  0  0  0  0  0  0  0  0  0
   -3.7475    1.3158   -0.3367 H   0  0  0  0  0  0  0  0  0  0  0  0
   -0.6765    1.0653    0.5744 H   0  0  0  0  0  0  0  0  0  0  0  0
    1.2728    2.1217    1.2038 H   0  0  0  0  0  0  0  0  0  0  0  0
    3.7272    2.1373    1.3426 H   0  0  0  0  0  0  0  0  0  0  0  0
    3.8769   -1.6243   -0.7419 H   0  0  0  0  0  0  0  0  0  0  0  0
    1.4374   -1.6526   -0.8991 H   0  0  0  0  0  0  0  0  0  0  0  0
  1  2  1  0
  2  3  1  0
  2  4  1  0
  4  5  2  0
  4  6  1  0
  6  7  1  0
  7  8  2  0
  8  9  1  0
  9 10  2  0
 10 11  1  0
 10 12  1  0
 12 13  2  0
 13  7  1  0
  1 14  1  0
  1 15  1  0
  1 16  1  0
  3 17  1  0
  3 18  1  0
  3 19  1  0
  6 20  1  0
  8 21  1  0
  9 22  1  0
 12 23  1  0
 13 24  1  0
M  END
>  <Energy>  (1) 
-47.24112190759455

>  <Real charge>  (1) 
0

>  <Mult>  (1) 
1

$$$$
