mol_340 16
     RDKit          3D

 23 25  0  0  0  0  0  0  0  0999 V2000
    3.6337    0.5075   -0.3290 C   0  0  0  0  0  0  0  0  0  0  0  0
    3.5593   -0.8783   -0.4060 C   0  0  0  0  0  0  0  0  0  0  0  0
    2.3168   -1.5141   -0.3216 C   0  0  0  0  0  0  0  0  0  0  0  0
    1.1376   -0.7984   -0.1613 C   0  0  0  0  0  0  0  0  0  0  0  0
   -0.0304   -1.4603   -0.0859 N   0  0  0  0  0  0  0  0  0  0  0  0
   -1.1701   -0.7639    0.0694 C   0  0  0  0  0  0  0  0  0  0  0  0
   -2.3784   -1.4440    0.1477 C   0  0  0  0  0  0  0  0  0  0  0  0
   -3.5936   -0.7714    0.3090 C   0  0  0  0  0  0  0  0  0  0  0  0
   -3.6103    0.6157    0.3950 C   0  0  0  0  0  0  0  0  0  0  0  0
   -2.4127    1.3234    0.3195 C   0  0  0  0  0  0  0  0  0  0  0  0
   -1.1933    0.6411    0.1572 C   0  0  0  0  0  0  0  0  0  0  0  0
    0.0275    1.3198    0.0776 C   0  0  0  0  0  0  0  0  0  0  0  0
    1.2192    0.6051   -0.0839 C   0  0  0  0  0  0  0  0  0  0  0  0
    2.4663    1.2505   -0.1682 C   0  0  0  0  0  0  0  0  0  0  0  0
    4.5963    1.0080   -0.3939 H   0  0  0  0  0  0  0  0  0  0  0  0
    4.4625   -1.4697   -0.5314 H   0  0  0  0  0  0  0  0  0  0  0  0
    2.2659   -2.5987   -0.3826 H   0  0  0  0  0  0  0  0  0  0  0  0
   -2.3727   -2.5294    0.0810 H   0  0  0  0  0  0  0  0  0  0  0  0
   -4.5209   -1.3355    0.3665 H   0  0  0  0  0  0  0  0  0  0  0  0
   -4.5515    1.1447    0.5205 H   0  0  0  0  0  0  0  0  0  0  0  0
   -2.4335    2.4086    0.3876 H   0  0  0  0  0  0  0  0  0  0  0  0
    0.0501    2.4049    0.1414 H   0  0  0  0  0  0  0  0  0  0  0  0
    2.5322    2.3344   -0.1087 H   0  0  0  0  0  0  0  0  0  0  0  0
  1  2  2  0
  2  3  1  0
  3  4  2  0
  4  5  1  0
  5  6  2  0
  6  7  1  0
  7  8  2  0
  8  9  1  0
  9 10  2  0
 10 11  1  0
 11 12  2  0
 12 13  1  0
 13 14  2  0
 11  6  1  0
 13  4  1  0
 14  1  1  0
  1 15  1  0
  2 16  1  0
  3 17  1  0
  7 18  1  0
  8 19  1  0
  9 20  1  0
 10 21  1  0
 12 22  1  0
 14 23  1  0
M  END
>  <Energy>  (1) 
49.421862156549

>  <Real charge>  (1) 
0

>  <Mult>  (1) 
1

$$$$
