mol_671 11
     RDKit          3D

  8  7  0  0  0  0  0  0  0  0999 V2000
   -1.2927   -1.1800    0.5235 F   0  0  0  0  0  0  0  0  0  0  0  0
   -0.7917   -0.0396   -0.0327 C   0  0  0  0  0  0  0  0  0  0  0  0
   -1.2756   -0.0117   -1.3078 F   0  0  0  0  0  0  0  0  0  0  0  0
   -1.4819    1.3539    0.8499 Cl  0  0  0  0  0  0  0  0  0  0  0  0
    0.7540   -0.0812   -0.0447 C   0  0  0  0  0  0  0  0  0  0  0  0
    1.1700   -1.1816   -0.7428 F   0  0  0  0  0  0  0  0  0  0  0  0
    1.4705    1.3543   -0.8519 Cl  0  0  0  0  0  0  0  0  0  0  0  0
    1.4475   -0.2141    1.6066 Cl  0  0  0  0  0  0  0  0  0  0  0  0
  1  2  1  0
  2  3  1  0
  2  4  1  0
  2  5  1  0
  5  6  1  0
  5  7  1  0
  5  8  1  0
M  END
>  <Energy>  (1) 
69.50619454782571

>  <Real charge>  (1) 
0

>  <Mult>  (1) 
1

$$$$
mol_671 5
     RDKit          3D

  8  7  0  0  0  0  0  0  0  0999 V2000
    0.8542    0.2465   -1.5513 F   0  0  0  0  0  0  0  0  0  0  0  0
    0.7533   -0.0689   -0.2294 C   0  0  0  0  0  0  0  0  0  0  0  0
    1.2329   -1.3403   -0.1137 F   0  0  0  0  0  0  0  0  0  0  0  0
    1.8429    1.0078    0.6906 Cl  0  0  0  0  0  0  0  0  0  0  0  0
   -0.7143    0.0026    0.2478 C   0  0  0  0  0  0  0  0  0  0  0  0
   -0.7940   -0.3007    1.5770 F   0  0  0  0  0  0  0  0  0  0  0  0
   -1.7424   -1.1795   -0.6341 Cl  0  0  0  0  0  0  0  0  0  0  0  0
   -1.4324    1.6325    0.0131 Cl  0  0  0  0  0  0  0  0  0  0  0  0
  1  2  1  0
  2  3  1  0
  2  4  1  0
  2  5  1  0
  5  6  1  0
  5  7  1  0
  5  8  1  0
M  END
>  <Energy>  (2) 
69.6690833219105

>  <Real charge>  (2) 
0

>  <Mult>  (2) 
1

$$$$
