mol_157 53
     RDKit          3D

 23 24  0  0  0  0  0  0  0  0999 V2000
    3.8894   -0.8374   -0.1735 O   0  0  0  0  0  0  0  0  0  0  0  0
    2.6438   -0.2845   -0.1200 C   0  0  0  0  0  0  0  0  0  0  0  0
    2.4631    1.0929   -0.1125 C   0  0  0  0  0  0  0  0  0  0  0  0
    1.1694    1.6127   -0.0516 C   0  0  0  0  0  0  0  0  0  0  0  0
    0.0554    0.7599    0.0073 C   0  0  0  0  0  0  0  0  0  0  0  0
   -1.3284    1.3619    0.0385 C   0  0  0  0  0  0  0  0  0  0  0  0
   -2.4065    0.3732    0.4786 C   0  0  0  0  0  0  0  0  0  0  0  0
   -2.2550   -0.9466   -0.2668 C   0  0  0  0  0  0  0  0  0  0  0  0
   -0.9115   -1.5945    0.0623 C   0  0  0  0  0  0  0  0  0  0  0  0
    0.2490   -0.6339   -0.0220 C   0  0  0  0  0  0  0  0  0  0  0  0
    1.5540   -1.1460   -0.0728 C   0  0  0  0  0  0  0  0  0  0  0  0
    4.5427   -0.1198   -0.2006 H   0  0  0  0  0  0  0  0  0  0  0  0
    3.3073    1.7731   -0.1532 H   0  0  0  0  0  0  0  0  0  0  0  0
    1.0302    2.6916   -0.0500 H   0  0  0  0  0  0  0  0  0  0  0  0
   -1.5619    1.7273   -0.9695 H   0  0  0  0  0  0  0  0  0  0  0  0
   -1.3447    2.2243    0.7155 H   0  0  0  0  0  0  0  0  0  0  0  0
   -2.3319    0.1954    1.5589 H   0  0  0  0  0  0  0  0  0  0  0  0
   -3.3973    0.8021    0.2912 H   0  0  0  0  0  0  0  0  0  0  0  0
   -2.3294   -0.7687   -1.3472 H   0  0  0  0  0  0  0  0  0  0  0  0
   -3.0685   -1.6292    0.0032 H   0  0  0  0  0  0  0  0  0  0  0  0
   -0.7498   -2.4361   -0.6219 H   0  0  0  0  0  0  0  0  0  0  0  0
   -0.9444   -1.9982    1.0821 H   0  0  0  0  0  0  0  0  0  0  0  0
    1.7250   -2.2195   -0.0760 H   0  0  0  0  0  0  0  0  0  0  0  0
  1  2  1  0
  2  3  2  0
  3  4  1  0
  4  5  2  0
  5  6  1  0
  6  7  1  0
  7  8  1  0
  8  9  1  0
  9 10  1  0
 10 11  2  0
 10  5  1  0
 11  2  1  0
  1 12  1  0
  3 13  1  0
  4 14  1  0
  6 15  1  0
  6 16  1  0
  7 17  1  0
  7 18  1  0
  8 19  1  0
  8 20  1  0
  9 21  1  0
  9 22  1  0
 11 23  1  0
M  END
>  <Energy>  (1) 
9.807023382230026

>  <Real charge>  (1) 
0

>  <Mult>  (1) 
1

$$$$
mol_157 117
     RDKit          3D

 23 24  0  0  0  0  0  0  0  0999 V2000
    3.6768   -0.6979   -1.4511 O   0  0  0  0  0  0  0  0  0  0  0  0
    2.4980   -0.2268   -0.9525 C   0  0  0  0  0  0  0  0  0  0  0  0
    2.3870    1.1392   -0.7372 C   0  0  0  0  0  0  0  0  0  0  0  0
    1.1972    1.6627   -0.2331 C   0  0  0  0  0  0  0  0  0  0  0  0
    0.1109    0.8210    0.0525 C   0  0  0  0  0  0  0  0  0  0  0  0
   -1.1483    1.4220    0.6284 C   0  0  0  0  0  0  0  0  0  0  0  0
   -2.3566    0.4920    0.5378 C   0  0  0  0  0  0  0  0  0  0  0  0
   -1.9886   -0.9064    1.0164 C   0  0  0  0  0  0  0  0  0  0  0  0
   -0.9085   -1.5100    0.1208 C   0  0  0  0  0  0  0  0  0  0  0  0
    0.2387   -0.5667   -0.1492 C   0  0  0  0  0  0  0  0  0  0  0  0
    1.4378   -1.0823   -0.6672 C   0  0  0  0  0  0  0  0  0  0  0  0
    3.6066   -1.6616   -1.5464 H   0  0  0  0  0  0  0  0  0  0  0  0
    3.2231    1.7952   -0.9605 H   0  0  0  0  0  0  0  0  0  0  0  0
    1.1204    2.7343   -0.0636 H   0  0  0  0  0  0  0  0  0  0  0  0
   -0.9570    1.6656    1.6811 H   0  0  0  0  0  0  0  0  0  0  0  0
   -1.3857    2.3585    0.1097 H   0  0  0  0  0  0  0  0  0  0  0  0
   -2.7139    0.4433   -0.4987 H   0  0  0  0  0  0  0  0  0  0  0  0
   -3.1771    0.8951    1.1419 H   0  0  0  0  0  0  0  0  0  0  0  0
   -2.8733   -1.5529    1.0122 H   0  0  0  0  0  0  0  0  0  0  0  0
   -1.6307   -0.8576    2.0527 H   0  0  0  0  0  0  0  0  0  0  0  0
   -0.5342   -2.4272    0.5911 H   0  0  0  0  0  0  0  0  0  0  0  0
   -1.3518   -1.7891   -0.8433 H   0  0  0  0  0  0  0  0  0  0  0  0
    1.5291   -2.1503   -0.8419 H   0  0  0  0  0  0  0  0  0  0  0  0
  1  2  1  0
  2  3  2  0
  3  4  1  0
  4  5  2  0
  5  6  1  0
  6  7  1  0
  7  8  1  0
  8  9  1  0
  9 10  1  0
 10 11  2  0
 10  5  1  0
 11  2  1  0
  1 12  1  0
  3 13  1  0
  4 14  1  0
  6 15  1  0
  6 16  1  0
  7 17  1  0
  7 18  1  0
  8 19  1  0
  8 20  1  0
  9 21  1  0
  9 22  1  0
 11 23  1  0
M  END
>  <Energy>  (2) 
9.811492747165913

>  <Real charge>  (2) 
0

>  <Mult>  (2) 
1

$$$$
