mol_488 78
     RDKit          3D

 16 16  0  0  0  0  0  0  0  0999 V2000
    2.6978   -0.2216    0.8647 O   0  0  0  0  0  0  0  0  0  0  0  0
    2.0593    0.2992   -0.2933 C   0  0  0  0  0  0  0  0  0  0  0  0
    0.5666    0.1380   -0.1941 C   0  0  0  0  0  0  0  0  0  0  0  0
   -0.0535   -1.0317   -0.6542 C   0  0  0  0  0  0  0  0  0  0  0  0
   -1.4344   -1.1941   -0.5328 C   0  0  0  0  0  0  0  0  0  0  0  0
   -2.2056   -0.1940    0.0567 C   0  0  0  0  0  0  0  0  0  0  0  0
   -1.5972    0.9676    0.5290 C   0  0  0  0  0  0  0  0  0  0  0  0
   -0.2165    1.1320    0.4087 C   0  0  0  0  0  0  0  0  0  0  0  0
    2.0054   -0.5642    1.4560 H   0  0  0  0  0  0  0  0  0  0  0  0
    2.3309    1.3550   -0.3965 H   0  0  0  0  0  0  0  0  0  0  0  0
    2.4499   -0.2244   -1.1723 H   0  0  0  0  0  0  0  0  0  0  0  0
    0.5380   -1.8238   -1.1090 H   0  0  0  0  0  0  0  0  0  0  0  0
   -1.9085   -2.1022   -0.8964 H   0  0  0  0  0  0  0  0  0  0  0  0
   -3.2809   -0.3213    0.1510 H   0  0  0  0  0  0  0  0  0  0  0  0
   -2.1982    1.7452    0.9935 H   0  0  0  0  0  0  0  0  0  0  0  0
    0.2470    2.0401    0.7890 H   0  0  0  0  0  0  0  0  0  0  0  0
  1  2  1  0
  2  3  1  0
  3  4  2  0
  4  5  1  0
  5  6  2  0
  6  7  1  0
  7  8  2  0
  8  3  1  0
  1  9  1  0
  2 10  1  0
  2 11  1  0
  4 12  1  0
  5 13  1  0
  6 14  1  0
  7 15  1  0
  8 16  1  0
M  END
>  <Energy>  (1) 
18.32647319004442

>  <Real charge>  (1) 
0

>  <Mult>  (1) 
1

$$$$
