mol_62 225
     RDKit          3D

 20 19  0  0  0  0  0  0  0  0999 V2000
   -3.6070   -0.2824   -0.3002 C   0  0  0  0  0  0  0  0  0  0  0  0
   -2.3247    0.4935   -0.0592 C   0  0  0  0  0  0  0  0  0  0  0  0
   -1.0945   -0.4007   -0.1530 C   0  0  0  0  0  0  0  0  0  0  0  0
    0.0635    0.4104    0.0866 O   0  0  0  0  0  0  0  0  0  0  0  0
    1.2440   -0.2701    0.0318 C   0  0  0  0  0  0  0  0  0  0  0  0
    1.3558   -1.4656   -0.1978 O   0  0  0  0  0  0  0  0  0  0  0  0
    2.3835    0.6839    0.2985 C   0  0  0  0  0  0  0  0  0  0  0  0
    3.7325   -0.0120    0.2521 C   0  0  0  0  0  0  0  0  0  0  0  0
   -3.6100   -0.7351   -1.2968 H   0  0  0  0  0  0  0  0  0  0  0  0
   -4.4727    0.3832   -0.2270 H   0  0  0  0  0  0  0  0  0  0  0  0
   -3.7280   -1.0797    0.4400 H   0  0  0  0  0  0  0  0  0  0  0  0
   -2.2415    1.3105   -0.7860 H   0  0  0  0  0  0  0  0  0  0  0  0
   -2.3579    0.9705    0.9277 H   0  0  0  0  0  0  0  0  0  0  0  0
   -1.0280   -0.8467   -1.1523 H   0  0  0  0  0  0  0  0  0  0  0  0
   -1.1472   -1.1946    0.6013 H   0  0  0  0  0  0  0  0  0  0  0  0
    2.3574    1.4752   -0.4581 H   0  0  0  0  0  0  0  0  0  0  0  0
    2.2387    1.1287    1.2886 H   0  0  0  0  0  0  0  0  0  0  0  0
    3.9081   -0.4642   -0.7297 H   0  0  0  0  0  0  0  0  0  0  0  0
    3.7904   -0.8078    1.0021 H   0  0  0  0  0  0  0  0  0  0  0  0
    4.5373    0.7029    0.4486 H   0  0  0  0  0  0  0  0  0  0  0  0
  1  2  1  0
  2  3  1  0
  3  4  1  0
  4  5  1  0
  5  6  2  0
  5  7  1  0
  7  8  1  0
  1  9  1  0
  1 10  1  0
  1 11  1  0
  2 12  1  0
  2 13  1  0
  3 14  1  0
  3 15  1  0
  7 16  1  0
  7 17  1  0
  8 18  1  0
  8 19  1  0
  8 20  1  0
M  END
>  <Energy>  (1) 
-12.765797482186153

>  <Real charge>  (1) 
0

>  <Mult>  (1) 
1

$$$$
mol_62 126
     RDKit          3D

 20 19  0  0  0  0  0  0  0  0999 V2000
   -2.9355    0.3692   -0.6538 C   0  0  0  0  0  0  0  0  0  0  0  0
   -2.4771   -0.6525    0.3771 C   0  0  0  0  0  0  0  0  0  0  0  0
   -1.0469   -1.1227    0.1317 C   0  0  0  0  0  0  0  0  0  0  0  0
   -0.1554   -0.0103    0.2825 O   0  0  0  0  0  0  0  0  0  0  0  0
    1.1572   -0.3115    0.0691 C   0  0  0  0  0  0  0  0  0  0  0  0
    1.5856   -1.4183   -0.2238 O   0  0  0  0  0  0  0  0  0  0  0  0
    1.9912    0.9338    0.2518 C   0  0  0  0  0  0  0  0  0  0  0  0
    3.4690    0.6689    0.0235 C   0  0  0  0  0  0  0  0  0  0  0  0
   -2.3199    1.2735   -0.6200 H   0  0  0  0  0  0  0  0  0  0  0  0
   -2.8828   -0.0453   -1.6656 H   0  0  0  0  0  0  0  0  0  0  0  0
   -3.9726    0.6608   -0.4603 H   0  0  0  0  0  0  0  0  0  0  0  0
   -2.5484   -0.1976    1.3720 H   0  0  0  0  0  0  0  0  0  0  0  0
   -3.1517   -1.5154    0.3549 H   0  0  0  0  0  0  0  0  0  0  0  0
   -0.7889   -1.8933    0.8674 H   0  0  0  0  0  0  0  0  0  0  0  0
   -0.9541   -1.5395   -0.8781 H   0  0  0  0  0  0  0  0  0  0  0  0
    1.6444    1.6906   -0.4596 H   0  0  0  0  0  0  0  0  0  0  0  0
    1.8422    1.3043    1.2714 H   0  0  0  0  0  0  0  0  0  0  0  0
    3.8467   -0.0825    0.7249 H   0  0  0  0  0  0  0  0  0  0  0  0
    4.0469    1.5877    0.1622 H   0  0  0  0  0  0  0  0  0  0  0  0
    3.6502    0.3001   -0.9916 H   0  0  0  0  0  0  0  0  0  0  0  0
  1  2  1  0
  2  3  1  0
  3  4  1  0
  4  5  1  0
  5  6  2  0
  5  7  1  0
  7  8  1  0
  1  9  1  0
  1 10  1  0
  1 11  1  0
  2 12  1  0
  2 13  1  0
  3 14  1  0
  3 15  1  0
  7 16  1  0
  7 17  1  0
  8 18  1  0
  8 19  1  0
  8 20  1  0
M  END
>  <Energy>  (2) 
-12.553114440707995

>  <Real charge>  (2) 
0

>  <Mult>  (2) 
1

$$$$
mol_62 281
     RDKit          3D

 20 19  0  0  0  0  0  0  0  0999 V2000
   -3.3849   -0.0278   -0.6147 C   0  0  0  0  0  0  0  0  0  0  0  0
   -2.0286    0.0829    0.0586 C   0  0  0  0  0  0  0  0  0  0  0  0
   -1.0723   -1.0060   -0.4153 C   0  0  0  0  0  0  0  0  0  0  0  0
    0.1787   -0.8992    0.2822 O   0  0  0  0  0  0  0  0  0  0  0  0
    1.0943   -0.0512   -0.2679 C   0  0  0  0  0  0  0  0  0  0  0  0
    0.9247    0.6099   -1.2819 O   0  0  0  0  0  0  0  0  0  0  0  0
    2.3467   -0.0566    0.5758 C   0  0  0  0  0  0  0  0  0  0  0  0
    3.4123    0.8724    0.0209 C   0  0  0  0  0  0  0  0  0  0  0  0
   -3.8536   -0.9928   -0.3969 H   0  0  0  0  0  0  0  0  0  0  0  0
   -3.2926    0.0725   -1.7008 H   0  0  0  0  0  0  0  0  0  0  0  0
   -4.0521    0.7623   -0.2561 H   0  0  0  0  0  0  0  0  0  0  0  0
   -2.1465    0.0183    1.1468 H   0  0  0  0  0  0  0  0  0  0  0  0
   -1.5994    1.0718   -0.1392 H   0  0  0  0  0  0  0  0  0  0  0  0
   -0.9229   -0.9742   -1.5012 H   0  0  0  0  0  0  0  0  0  0  0  0
   -1.4822   -1.9941   -0.1791 H   0  0  0  0  0  0  0  0  0  0  0  0
    2.7381   -1.0788    0.6088 H   0  0  0  0  0  0  0  0  0  0  0  0
    2.0825    0.2599    1.5903 H   0  0  0  0  0  0  0  0  0  0  0  0
    3.7009    0.5781   -0.9936 H   0  0  0  0  0  0  0  0  0  0  0  0
    3.0507    1.9052   -0.0203 H   0  0  0  0  0  0  0  0  0  0  0  0
    4.3060    0.8474    0.6519 H   0  0  0  0  0  0  0  0  0  0  0  0
  1  2  1  0
  2  3  1  0
  3  4  1  0
  4  5  1  0
  5  6  2  0
  5  7  1  0
  7  8  1  0
  1  9  1  0
  1 10  1  0
  1 11  1  0
  2 12  1  0
  2 13  1  0
  3 14  1  0
  3 15  1  0
  7 16  1  0
  7 17  1  0
  8 18  1  0
  8 19  1  0
  8 20  1  0
M  END
>  <Energy>  (3) 
-12.3755972799295

>  <Real charge>  (3) 
0

>  <Mult>  (3) 
1

$$$$
mol_62 293
     RDKit          3D

 20 19  0  0  0  0  0  0  0  0999 V2000
   -2.6407    0.5783    0.7301 C   0  0  0  0  0  0  0  0  0  0  0  0
   -2.1544   -0.6669    0.0025 C   0  0  0  0  0  0  0  0  0  0  0  0
   -1.3246   -0.3305   -1.2337 C   0  0  0  0  0  0  0  0  0  0  0  0
   -0.1652    0.4420   -0.8868 O   0  0  0  0  0  0  0  0  0  0  0  0
    0.9272   -0.2716   -0.4908 C   0  0  0  0  0  0  0  0  0  0  0  0
    0.9847   -1.4900   -0.4126 O   0  0  0  0  0  0  0  0  0  0  0  0
    2.0508    0.6820   -0.1614 C   0  0  0  0  0  0  0  0  0  0  0  0
    3.3014   -0.0467    0.2979 C   0  0  0  0  0  0  0  0  0  0  0  0
   -3.2592    0.2962    1.5881 H   0  0  0  0  0  0  0  0  0  0  0  0
   -1.8021    1.1751    1.1023 H   0  0  0  0  0  0  0  0  0  0  0  0
   -3.2448    1.2074    0.0687 H   0  0  0  0  0  0  0  0  0  0  0  0
   -1.5596   -1.2653    0.7016 H   0  0  0  0  0  0  0  0  0  0  0  0
   -3.0178   -1.2713   -0.2965 H   0  0  0  0  0  0  0  0  0  0  0  0
   -1.0392   -1.2407   -1.7744 H   0  0  0  0  0  0  0  0  0  0  0  0
   -1.9161    0.2755   -1.9288 H   0  0  0  0  0  0  0  0  0  0  0  0
    2.2809    1.2691   -1.0567 H   0  0  0  0  0  0  0  0  0  0  0  0
    1.7118    1.3558    0.6326 H   0  0  0  0  0  0  0  0  0  0  0  0
    4.0963    0.6688    0.5295 H   0  0  0  0  0  0  0  0  0  0  0  0
    3.6679   -0.7265   -0.4785 H   0  0  0  0  0  0  0  0  0  0  0  0
    3.1027   -0.6408    1.1961 H   0  0  0  0  0  0  0  0  0  0  0  0
  1  2  1  0
  2  3  1  0
  3  4  1  0
  4  5  1  0
  5  6  2  0
  5  7  1  0
  7  8  1  0
  1  9  1  0
  1 10  1  0
  1 11  1  0
  2 12  1  0
  2 13  1  0
  3 14  1  0
  3 15  1  0
  7 16  1  0
  7 17  1  0
  8 18  1  0
  8 19  1  0
  8 20  1  0
M  END
>  <Energy>  (4) 
-12.217330353797648

>  <Real charge>  (4) 
0

>  <Mult>  (4) 
1

$$$$
mol_62 47
     RDKit          3D

 20 19  0  0  0  0  0  0  0  0999 V2000
    3.3930    0.5648   -0.3272 C   0  0  0  0  0  0  0  0  0  0  0  0
    1.9088    0.8369   -0.4934 C   0  0  0  0  0  0  0  0  0  0  0  0
    1.0646   -0.3759   -0.1218 C   0  0  0  0  0  0  0  0  0  0  0  0
   -0.3144   -0.0303   -0.3076 O   0  0  0  0  0  0  0  0  0  0  0  0
   -1.1861   -1.0314   -0.0052 C   0  0  0  0  0  0  0  0  0  0  0  0
   -0.8753   -2.1449    0.3947 O   0  0  0  0  0  0  0  0  0  0  0  0
   -2.6048   -0.5735   -0.2161 C   0  0  0  0  0  0  0  0  0  0  0  0
   -3.0748    0.2843    0.9412 C   0  0  0  0  0  0  0  0  0  0  0  0
    3.9742    1.4509   -0.6004 H   0  0  0  0  0  0  0  0  0  0  0  0
    3.7141   -0.2629   -0.9676 H   0  0  0  0  0  0  0  0  0  0  0  0
    3.6310    0.3091    0.7103 H   0  0  0  0  0  0  0  0  0  0  0  0
    1.6154    1.6928    0.1263 H   0  0  0  0  0  0  0  0  0  0  0  0
    1.6974    1.1285   -1.5292 H   0  0  0  0  0  0  0  0  0  0  0  0
    1.2357   -0.6471    0.9266 H   0  0  0  0  0  0  0  0  0  0  0  0
    1.3190   -1.2246   -0.7675 H   0  0  0  0  0  0  0  0  0  0  0  0
   -2.6708   -0.0303   -1.1650 H   0  0  0  0  0  0  0  0  0  0  0  0
   -3.2400   -1.4606   -0.3155 H   0  0  0  0  0  0  0  0  0  0  0  0
   -4.1164    0.5860    0.7950 H   0  0  0  0  0  0  0  0  0  0  0  0
   -2.4662    1.1898    1.0344 H   0  0  0  0  0  0  0  0  0  0  0  0
   -3.0044   -0.2617    1.8879 H   0  0  0  0  0  0  0  0  0  0  0  0
  1  2  1  0
  2  3  1  0
  3  4  1  0
  4  5  1  0
  5  6  2  0
  5  7  1  0
  7  8  1  0
  1  9  1  0
  1 10  1  0
  1 11  1  0
  2 12  1  0
  2 13  1  0
  3 14  1  0
  3 15  1  0
  7 16  1  0
  7 17  1  0
  8 18  1  0
  8 19  1  0
  8 20  1  0
M  END
>  <Energy>  (5) 
-12.082055254955334

>  <Real charge>  (5) 
0

>  <Mult>  (5) 
1

$$$$
mol_62 239
     RDKit          3D

 20 19  0  0  0  0  0  0  0  0999 V2000
    2.3782    1.0988   -0.4277 C   0  0  0  0  0  0  0  0  0  0  0  0
    2.3722   -0.3900   -0.1104 C   0  0  0  0  0  0  0  0  0  0  0  0
    1.1572   -0.8017    0.7147 C   0  0  0  0  0  0  0  0  0  0  0  0
   -0.0299   -0.5732   -0.0551 O   0  0  0  0  0  0  0  0  0  0  0  0
   -1.1863   -0.8723    0.5976 C   0  0  0  0  0  0  0  0  0  0  0  0
   -1.2643   -1.3073    1.7382 O   0  0  0  0  0  0  0  0  0  0  0  0
   -2.3743   -0.5819   -0.2807 C   0  0  0  0  0  0  0  0  0  0  0  0
   -2.6433    0.9077   -0.3569 C   0  0  0  0  0  0  0  0  0  0  0  0
    1.5070    1.3825   -1.0264 H   0  0  0  0  0  0  0  0  0  0  0  0
    2.3732    1.6946    0.4906 H   0  0  0  0  0  0  0  0  0  0  0  0
    3.2765    1.3595   -0.9964 H   0  0  0  0  0  0  0  0  0  0  0  0
    2.3800   -0.9460   -1.0551 H   0  0  0  0  0  0  0  0  0  0  0  0
    3.2863   -0.6464    0.4362 H   0  0  0  0  0  0  0  0  0  0  0  0
    1.1171   -0.2204    1.6435 H   0  0  0  0  0  0  0  0  0  0  0  0
    1.2289   -1.8683    0.9570 H   0  0  0  0  0  0  0  0  0  0  0  0
   -2.1972   -1.0048   -1.2755 H   0  0  0  0  0  0  0  0  0  0  0  0
   -3.2436   -1.1032    0.1351 H   0  0  0  0  0  0  0  0  0  0  0  0
   -2.8122    1.3270    0.6406 H   0  0  0  0  0  0  0  0  0  0  0  0
   -3.5295    1.1052   -0.9676 H   0  0  0  0  0  0  0  0  0  0  0  0
   -1.7961    1.4403   -0.8015 H   0  0  0  0  0  0  0  0  0  0  0  0
  1  2  1  0
  2  3  1  0
  3  4  1  0
  4  5  1  0
  5  6  2  0
  5  7  1  0
  7  8  1  0
  1  9  1  0
  1 10  1  0
  1 11  1  0
  2 12  1  0
  2 13  1  0
  3 14  1  0
  3 15  1  0
  7 16  1  0
  7 17  1  0
  8 18  1  0
  8 19  1  0
  8 20  1  0
M  END
>  <Energy>  (6) 
-11.924159611575035

>  <Real charge>  (6) 
0

>  <Mult>  (6) 
1

$$$$
mol_62 63
     RDKit          3D

 20 19  0  0  0  0  0  0  0  0999 V2000
   -2.6744    0.8435    0.7093 C   0  0  0  0  0  0  0  0  0  0  0  0
   -2.2147    0.3694   -0.6621 C   0  0  0  0  0  0  0  0  0  0  0  0
   -1.1386   -0.7080   -0.5728 C   0  0  0  0  0  0  0  0  0  0  0  0
    0.0293   -0.1534    0.0455 O   0  0  0  0  0  0  0  0  0  0  0  0
    1.0584   -1.0332    0.1867 C   0  0  0  0  0  0  0  0  0  0  0  0
    1.0441   -2.2035   -0.1689 O   0  0  0  0  0  0  0  0  0  0  0  0
    2.2388   -0.3599    0.8350 C   0  0  0  0  0  0  0  0  0  0  0  0
    2.9917    0.4950   -0.1642 C   0  0  0  0  0  0  0  0  0  0  0  0
   -1.8516    1.2972    1.2708 H   0  0  0  0  0  0  0  0  0  0  0  0
   -3.0744    0.0113    1.2972 H   0  0  0  0  0  0  0  0  0  0  0  0
   -3.4637    1.5945    0.6036 H   0  0  0  0  0  0  0  0  0  0  0  0
   -1.8252    1.2322   -1.2149 H   0  0  0  0  0  0  0  0  0  0  0  0
   -3.0751   -0.0219   -1.2159 H   0  0  0  0  0  0  0  0  0  0  0  0
   -1.5027   -1.5584    0.0158 H   0  0  0  0  0  0  0  0  0  0  0  0
   -0.8843   -1.0487   -1.5833 H   0  0  0  0  0  0  0  0  0  0  0  0
    2.8953   -1.1368    1.2422 H   0  0  0  0  0  0  0  0  0  0  0  0
    1.8906    0.2368    1.6850 H   0  0  0  0  0  0  0  0  0  0  0  0
    3.8661    0.9536    0.3075 H   0  0  0  0  0  0  0  0  0  0  0  0
    3.3341   -0.1049   -1.0140 H   0  0  0  0  0  0  0  0  0  0  0  0
    2.3562    1.2952   -0.5577 H   0  0  0  0  0  0  0  0  0  0  0  0
  1  2  1  0
  2  3  1  0
  3  4  1  0
  4  5  1  0
  5  6  2  0
  5  7  1  0
  7  8  1  0
  1  9  1  0
  1 10  1  0
  1 11  1  0
  2 12  1  0
  2 13  1  0
  3 14  1  0
  3 15  1  0
  7 16  1  0
  7 17  1  0
  8 18  1  0
  8 19  1  0
  8 20  1  0
M  END
>  <Energy>  (7) 
-11.875772617903655

>  <Real charge>  (7) 
0

>  <Mult>  (7) 
1

$$$$
