mol_617 112
     RDKit          3D

 24 25  0  0  0  0  0  0  0  0999 V2000
   -3.9803    0.5371   -0.2832 C   0  0  0  0  0  0  0  0  0  0  0  0
   -2.5430    0.1093   -0.2565 C   0  0  0  0  0  0  0  0  0  0  0  0
   -2.2036   -1.2205    0.0051 C   0  0  0  0  0  0  0  0  0  0  0  0
   -0.8632   -1.6104    0.0606 C   0  0  0  0  0  0  0  0  0  0  0  0
    0.1662   -0.6768   -0.1341 C   0  0  0  0  0  0  0  0  0  0  0  0
    1.5193   -1.0544   -0.0812 C   0  0  0  0  0  0  0  0  0  0  0  0
    2.5424   -0.1177   -0.2817 C   0  0  0  0  0  0  0  0  0  0  0  0
    3.9806   -0.5329   -0.1883 C   0  0  0  0  0  0  0  0  0  0  0  0
    2.2034    1.2179   -0.5124 C   0  0  0  0  0  0  0  0  0  0  0  0
    0.8631    1.6079   -0.5678 C   0  0  0  0  0  0  0  0  0  0  0  0
   -0.1665    0.6723   -0.3834 C   0  0  0  0  0  0  0  0  0  0  0  0
   -1.5197    1.0499   -0.4364 C   0  0  0  0  0  0  0  0  0  0  0  0
   -4.1263    1.3713   -0.9774 H   0  0  0  0  0  0  0  0  0  0  0  0
   -4.6259   -0.2811   -0.6195 H   0  0  0  0  0  0  0  0  0  0  0  0
   -4.2966    0.8487    0.7170 H   0  0  0  0  0  0  0  0  0  0  0  0
   -2.9799   -1.9648    0.1669 H   0  0  0  0  0  0  0  0  0  0  0  0
   -0.6280   -2.6533    0.2603 H   0  0  0  0  0  0  0  0  0  0  0  0
    1.7801   -2.0921    0.1182 H   0  0  0  0  0  0  0  0  0  0  0  0
    4.6133    0.1041   -0.8153 H   0  0  0  0  0  0  0  0  0  0  0  0
    4.3240   -0.4614    0.8483 H   0  0  0  0  0  0  0  0  0  0  0  0
    4.1127   -1.5630   -0.5355 H   0  0  0  0  0  0  0  0  0  0  0  0
    2.9800    1.9664   -0.6521 H   0  0  0  0  0  0  0  0  0  0  0  0
    0.6280    2.6532   -0.7546 H   0  0  0  0  0  0  0  0  0  0  0  0
   -1.7803    2.0904   -0.6209 H   0  0  0  0  0  0  0  0  0  0  0  0
  1  2  1  0
  2  3  2  0
  3  4  1  0
  4  5  2  0
  5  6  1  0
  6  7  2  0
  7  8  1  0
  7  9  1  0
  9 10  2  0
 10 11  1  0
 11 12  2  0
 12  2  1  0
 11  5  1  0
  1 13  1  0
  1 14  1  0
  1 15  1  0
  3 16  1  0
  4 17  1  0
  6 18  1  0
  8 19  1  0
  8 20  1  0
  8 21  1  0
  9 22  1  0
 10 23  1  0
 12 24  1  0
M  END
>  <Energy>  (1) 
35.30351719630308

>  <Real charge>  (1) 
0

>  <Mult>  (1) 
1

$$$$
