mol_136 9
     RDKit          3D

 19 20  0  0  0  0  0  0  0  0999 V2000
   -2.1129    0.0563    0.5752 C   0  0  0  0  0  0  0  0  0  0  0  0
   -1.3570   -1.2238    0.1906 C   0  0  0  0  0  0  0  0  0  0  0  0
    0.0356   -0.7009    0.0270 C   0  0  0  0  0  0  0  0  0  0  0  0
    1.2172   -1.4205   -0.0227 C   0  0  0  0  0  0  0  0  0  0  0  0
    2.4098   -0.7215   -0.2221 C   0  0  0  0  0  0  0  0  0  0  0  0
    2.4039    0.6735   -0.3802 C   0  0  0  0  0  0  0  0  0  0  0  0
    1.2054    1.3894   -0.3412 C   0  0  0  0  0  0  0  0  0  0  0  0
    0.0297    0.6894   -0.1306 C   0  0  0  0  0  0  0  0  0  0  0  0
   -1.3673    1.2241   -0.0869 C   0  0  0  0  0  0  0  0  0  0  0  0
   -2.0770    0.1802    1.6667 H   0  0  0  0  0  0  0  0  0  0  0  0
   -3.1690    0.0196    0.2905 H   0  0  0  0  0  0  0  0  0  0  0  0
   -1.4309   -1.9818    0.9753 H   0  0  0  0  0  0  0  0  0  0  0  0
   -1.7213   -1.6286   -0.7592 H   0  0  0  0  0  0  0  0  0  0  0  0
    1.2216   -2.4998    0.0884 H   0  0  0  0  0  0  0  0  0  0  0  0
    3.3520   -1.2625   -0.2613 H   0  0  0  0  0  0  0  0  0  0  0  0
    3.3416    1.1998   -0.5404 H   0  0  0  0  0  0  0  0  0  0  0  0
    1.2007    2.4662   -0.4746 H   0  0  0  0  0  0  0  0  0  0  0  0
   -1.4482    2.1379    0.5083 H   0  0  0  0  0  0  0  0  0  0  0  0
   -1.7341    1.4029   -1.1029 H   0  0  0  0  0  0  0  0  0  0  0  0
  1  2  1  0
  2  3  1  0
  3  4  2  0
  4  5  1  0
  5  6  2  0
  6  7  1  0
  7  8  2  0
  8  9  1  0
  9  1  1  0
  8  3  1  0
  1 10  1  0
  1 11  1  0
  2 12  1  0
  2 13  1  0
  4 14  1  0
  5 15  1  0
  6 16  1  0
  7 17  1  0
  9 18  1  0
  9 19  1  0
M  END
>  <Energy>  (1) 
22.824543941512236

>  <Real charge>  (1) 
0

>  <Mult>  (1) 
1

$$$$
