mol_872 18
     RDKit          3D

 22 23  0  0  0  0  0  0  0  0999 V2000
    5.2436   -0.4594   -0.4119 Cl  0  0  0  0  0  0  0  0  0  0  0  0
    3.5354   -0.3098   -0.2777 C   0  0  0  0  0  0  0  0  0  0  0  0
    2.9870    0.8214    0.3158 C   0  0  0  0  0  0  0  0  0  0  0  0
    1.5986    0.9417    0.4242 C   0  0  0  0  0  0  0  0  0  0  0  0
    0.9849    2.3778    1.1748 Cl  0  0  0  0  0  0  0  0  0  0  0  0
    0.7350   -0.0644   -0.0577 C   0  0  0  0  0  0  0  0  0  0  0  0
    1.3265   -1.1980   -0.6539 C   0  0  0  0  0  0  0  0  0  0  0  0
    0.3649   -2.4960   -1.2808 Cl  0  0  0  0  0  0  0  0  0  0  0  0
    2.7145   -1.3209   -0.7636 C   0  0  0  0  0  0  0  0  0  0  0  0
   -0.7350    0.0644    0.0577 C   0  0  0  0  0  0  0  0  0  0  0  0
   -1.4991    0.6741   -0.9595 C   0  0  0  0  0  0  0  0  0  0  0  0
   -0.7582    1.3027   -2.3941 Cl  0  0  0  0  0  0  0  0  0  0  0  0
   -2.8873    0.7964   -0.8517 C   0  0  0  0  0  0  0  0  0  0  0  0
   -3.5354    0.3098    0.2777 C   0  0  0  0  0  0  0  0  0  0  0  0
   -5.2436    0.4594    0.4119 Cl  0  0  0  0  0  0  0  0  0  0  0  0
   -2.8141   -0.2968    1.2996 C   0  0  0  0  0  0  0  0  0  0  0  0
   -1.4260   -0.4178    1.1892 C   0  0  0  0  0  0  0  0  0  0  0  0
   -0.5917   -1.1845    2.5002 Cl  0  0  0  0  0  0  0  0  0  0  0  0
    3.6362    1.6078    0.6933 H   0  0  0  0  0  0  0  0  0  0  0  0
    3.1515   -2.2025   -1.2265 H   0  0  0  0  0  0  0  0  0  0  0  0
   -3.4589    1.2696   -1.6466 H   0  0  0  0  0  0  0  0  0  0  0  0
   -3.3288   -0.6749    2.1797 H   0  0  0  0  0  0  0  0  0  0  0  0
  1  2  1  0
  2  3  2  0
  3  4  1  0
  4  5  1  0
  4  6  2  0
  6  7  1  0
  7  8  1  0
  7  9  2  0
  6 10  1  0
 10 11  2  0
 11 12  1  0
 11 13  1  0
 13 14  2  0
 14 15  1  0
 14 16  1  0
 16 17  2  0
 17 18  1  0
  9  2  1  0
 17 10  1  0
  3 19  1  0
  9 20  1  0
 13 21  1  0
 16 22  1  0
M  END
>  <Energy>  (1) 
11.356736803210508

>  <Real charge>  (1) 
0

>  <Mult>  (1) 
1

$$$$
