mol_561 34
     RDKit          3D

 22 23  0  0  0  0  0  0  0  0999 V2000
    5.2108   -0.8761    0.1544 Cl  0  0  0  0  0  0  0  0  0  0  0  0
    3.5137   -0.5419    0.1044 C   0  0  0  0  0  0  0  0  0  0  0  0
    2.7145   -1.1803    1.0548 C   0  0  0  0  0  0  0  0  0  0  0  0
    1.3384   -0.9580    1.0776 C   0  0  0  0  0  0  0  0  0  0  0  0
    0.7325   -0.0947    0.1489 C   0  0  0  0  0  0  0  0  0  0  0  0
    1.5492    0.5515   -0.8092 C   0  0  0  0  0  0  0  0  0  0  0  0
    0.8075    1.6342   -1.9561 Cl  0  0  0  0  0  0  0  0  0  0  0  0
    2.9403    0.3288   -0.8339 C   0  0  0  0  0  0  0  0  0  0  0  0
    3.9447    1.1251   -2.0083 Cl  0  0  0  0  0  0  0  0  0  0  0  0
   -0.7297    0.0992    0.2128 C   0  0  0  0  0  0  0  0  0  0  0  0
   -1.2378    1.1256    1.0272 C   0  0  0  0  0  0  0  0  0  0  0  0
   -2.6102    1.3542    1.1165 C   0  0  0  0  0  0  0  0  0  0  0  0
   -3.5033    0.5593    0.3953 C   0  0  0  0  0  0  0  0  0  0  0  0
   -5.1877    0.9146    0.5706 Cl  0  0  0  0  0  0  0  0  0  0  0  0
   -3.0285   -0.4757   -0.4235 C   0  0  0  0  0  0  0  0  0  0  0  0
   -4.1487   -1.4651   -1.3115 Cl  0  0  0  0  0  0  0  0  0  0  0  0
   -1.6410   -0.7045   -0.5126 C   0  0  0  0  0  0  0  0  0  0  0  0
   -1.0199   -1.9883   -1.5145 Cl  0  0  0  0  0  0  0  0  0  0  0  0
    3.1585   -1.8579    1.7817 H   0  0  0  0  0  0  0  0  0  0  0  0
    0.7343   -1.4728    1.8244 H   0  0  0  0  0  0  0  0  0  0  0  0
   -0.5600    1.7634    1.5942 H   0  0  0  0  0  0  0  0  0  0  0  0
   -2.9778    2.1591    1.7503 H   0  0  0  0  0  0  0  0  0  0  0  0
  1  2  1  0
  2  3  2  0
  3  4  1  0
  4  5  2  0
  5  6  1  0
  6  7  1  0
  6  8  2  0
  8  9  1  0
  5 10  1  0
 10 11  2  0
 11 12  1  0
 12 13  2  0
 13 14  1  0
 13 15  1  0
 15 16  1  0
 15 17  2  0
 17 18  1  0
  8  2  1  0
 17 10  1  0
  3 19  1  0
  4 20  1  0
 11 21  1  0
 12 22  1  0
M  END
>  <Energy>  (1) 
70.16222000479226

>  <Real charge>  (1) 
0

>  <Mult>  (1) 
1

$$$$
