mol_1047 13
     RDKit          3D

 24 26  0  0  0  0  0  0  0  0999 V2000
    3.3309    0.9543    1.6831 Cl  0  0  0  0  0  0  0  0  0  0  0  0
    2.3299    0.1824    0.4419 C   0  0  0  0  0  0  0  0  0  0  0  0
    1.4395    1.2049   -0.2705 C   0  0  0  0  0  0  0  0  0  0  0  0
    0.3766    0.3358   -0.9477 C   0  0  0  0  0  0  0  0  0  0  0  0
    0.3119   -0.9934   -0.1201 C   0  0  0  0  0  0  0  0  0  0  0  0
    1.3193   -0.8143    1.0226 C   0  0  0  0  0  0  0  0  0  0  0  0
    2.0628   -2.3606    1.4755 Cl  0  0  0  0  0  0  0  0  0  0  0  0
   -1.2109   -1.1100    0.2145 C   0  0  0  0  0  0  0  0  0  0  0  0
   -1.6991   -2.7193    0.7054 Cl  0  0  0  0  0  0  0  0  0  0  0  0
   -1.5879    0.0245    1.1472 C   0  0  0  0  0  0  0  0  0  0  0  0
   -1.5276    1.1614    0.4438 C   0  0  0  0  0  0  0  0  0  0  0  0
   -1.8174    2.7374    0.9915 Cl  0  0  0  0  0  0  0  0  0  0  0  0
   -1.1149    0.8017   -0.9695 C   0  0  0  0  0  0  0  0  0  0  0  0
   -1.4447    1.9941   -2.2096 Cl  0  0  0  0  0  0  0  0  0  0  0  0
   -1.8725   -0.5663   -1.1028 C   0  0  0  0  0  0  0  0  0  0  0  0
   -1.4762   -1.5040   -2.5869 Cl  0  0  0  0  0  0  0  0  0  0  0  0
   -3.6728   -0.4416   -1.0539 Cl  0  0  0  0  0  0  0  0  0  0  0  0
   -1.9689   -0.1632    2.7864 Cl  0  0  0  0  0  0  0  0  0  0  0  0
    2.9993   -0.3007   -0.2803 H   0  0  0  0  0  0  0  0  0  0  0  0
    1.0059    1.9124    0.4423 H   0  0  0  0  0  0  0  0  0  0  0  0
    2.0026    1.7910   -1.0047 H   0  0  0  0  0  0  0  0  0  0  0  0
    0.7250    0.1021   -1.9631 H   0  0  0  0  0  0  0  0  0  0  0  0
    0.6284   -1.8182   -0.7737 H   0  0  0  0  0  0  0  0  0  0  0  0
    0.8608   -0.4104    1.9285 H   0  0  0  0  0  0  0  0  0  0  0  0
  1  2  1  0
  2  3  1  0
  3  4  1  0
  4  5  1  0
  5  6  1  0
  6  7  1  0
  5  8  1  0
  8  9  1  0
  8 10  1  0
 10 11  2  0
 11 12  1  0
 11 13  1  0
 13 14  1  0
 13 15  1  0
 15 16  1  0
 15 17  1  0
 10 18  1  0
  6  2  1  0
 13  4  1  0
 15  8  1  0
  2 19  1  0
  3 20  1  0
  3 21  1  0
  4 22  1  0
  5 23  1  0
  6 24  1  0
M  END
>  <Energy>  (1) 
93.49852610239493

>  <Real charge>  (1) 
0

>  <Mult>  (1) 
1

$$$$
mol_1047 60
     RDKit          3D

 24 26  0  0  0  0  0  0  0  0999 V2000
    3.0731   -0.7587   -1.6575 Cl  0  0  0  0  0  0  0  0  0  0  0  0
    2.4005   -0.1531   -0.1138 C   0  0  0  0  0  0  0  0  0  0  0  0
    1.4191   -1.1904    0.4547 C   0  0  0  0  0  0  0  0  0  0  0  0
    0.1357   -0.9768   -0.3616 C   0  0  0  0  0  0  0  0  0  0  0  0
    0.1940    0.5050   -0.8747 C   0  0  0  0  0  0  0  0  0  0  0  0
    1.4883    1.0761   -0.2800 C   0  0  0  0  0  0  0  0  0  0  0  0
    2.1618    2.3929   -1.2521 Cl  0  0  0  0  0  0  0  0  0  0  0  0
   -1.1846    1.0772   -0.4102 C   0  0  0  0  0  0  0  0  0  0  0  0
   -1.6528    2.5483   -1.2387 Cl  0  0  0  0  0  0  0  0  0  0  0  0
   -1.1993    1.1248    1.1056 C   0  0  0  0  0  0  0  0  0  0  0  0
   -1.2378   -0.1376    1.5482 C   0  0  0  0  0  0  0  0  0  0  0  0
   -1.2222   -0.6745    3.1543 Cl  0  0  0  0  0  0  0  0  0  0  0  0
   -1.2598   -1.0459    0.3349 C   0  0  0  0  0  0  0  0  0  0  0  0
   -1.8196   -2.6850    0.5982 Cl  0  0  0  0  0  0  0  0  0  0  0  0
   -2.1341   -0.1572   -0.6190 C   0  0  0  0  0  0  0  0  0  0  0  0
   -3.8359    0.0926   -0.0672 Cl  0  0  0  0  0  0  0  0  0  0  0  0
   -2.2405   -0.7481   -2.3144 Cl  0  0  0  0  0  0  0  0  0  0  0  0
   -1.1217    2.5450    2.0251 Cl  0  0  0  0  0  0  0  0  0  0  0  0
    3.2381    0.0359    0.5637 H   0  0  0  0  0  0  0  0  0  0  0  0
    1.7852   -2.2192    0.3701 H   0  0  0  0  0  0  0  0  0  0  0  0
    1.2671   -0.9950    1.5203 H   0  0  0  0  0  0  0  0  0  0  0  0
    0.1644   -1.6530   -1.2269 H   0  0  0  0  0  0  0  0  0  0  0  0
    0.2570    0.4926   -1.9715 H   0  0  0  0  0  0  0  0  0  0  0  0
    1.3239    1.5038    0.7123 H   0  0  0  0  0  0  0  0  0  0  0  0
  1  2  1  0
  2  3  1  0
  3  4  1  0
  4  5  1  0
  5  6  1  0
  6  7  1  0
  5  8  1  0
  8  9  1  0
  8 10  1  0
 10 11  2  0
 11 12  1  0
 11 13  1  0
 13 14  1  0
 13 15  1  0
 15 16  1  0
 15 17  1  0
 10 18  1  0
  6  2  1  0
 13  4  1  0
 15  8  1  0
  2 19  1  0
  3 20  1  0
  3 21  1  0
  4 22  1  0
  5 23  1  0
  6 24  1  0
M  END
>  <Energy>  (2) 
93.52008718487835

>  <Real charge>  (2) 
0

>  <Mult>  (2) 
1

$$$$
