mol_562 300
     RDKit          3D

 39 41  0  0  0  0  0  0  0  0999 V2000
   -2.5938    3.5284   -0.9500 C   0  0  0  0  0  0  0  0  0  0  0  0
   -1.6449    2.3885   -1.2107 C   0  0  0  0  0  0  0  0  0  0  0  0
   -0.5735    2.5682   -1.7947 O   0  0  0  0  0  0  0  0  0  0  0  0
   -2.0956    1.0138   -0.7481 C   0  0  0  0  0  0  0  0  0  0  0  0
   -0.9631   -0.0274   -0.8560 C   0  0  0  0  0  0  0  0  0  0  0  0
   -1.4321   -1.4848   -0.8659 C   0  0  0  0  0  0  0  0  0  0  0  0
   -0.6521   -2.4431   -1.5395 C   0  0  0  0  0  0  0  0  0  0  0  0
   -1.0354   -3.7849   -1.5743 C   0  0  0  0  0  0  0  0  0  0  0  0
   -2.2003   -4.1929   -0.9311 C   0  0  0  0  0  0  0  0  0  0  0  0
   -2.9783   -3.2604   -0.2496 C   0  0  0  0  0  0  0  0  0  0  0  0
   -2.5972   -1.9166   -0.2152 C   0  0  0  0  0  0  0  0  0  0  0  0
    0.1648    0.2069    0.1469 C   0  0  0  0  0  0  0  0  0  0  0  0
    1.3829    0.6597   -0.2041 C   0  0  0  0  0  0  0  0  0  0  0  0
    1.6925    1.0962   -1.4771 O   0  0  0  0  0  0  0  0  0  0  0  0
    2.4821    0.7075    0.7562 C   0  0  0  0  0  0  0  0  0  0  0  0
    3.7745    1.1340    0.4286 C   0  0  0  0  0  0  0  0  0  0  0  0
    4.7893    1.1331    1.3919 C   0  0  0  0  0  0  0  0  0  0  0  0
    4.5222    0.7036    2.6922 C   0  0  0  0  0  0  0  0  0  0  0  0
    3.2404    0.2771    3.0307 C   0  0  0  0  0  0  0  0  0  0  0  0
    2.2409    0.2865    2.0581 C   0  0  0  0  0  0  0  0  0  0  0  0
    0.9605   -0.1293    2.4532 O   0  0  0  0  0  0  0  0  0  0  0  0
   -0.1153   -0.0883    1.5779 C   0  0  0  0  0  0  0  0  0  0  0  0
   -1.2582   -0.2539    1.9930 O   0  0  0  0  0  0  0  0  0  0  0  0
   -2.7631    3.6252    0.1252 H   0  0  0  0  0  0  0  0  0  0  0  0
   -2.1617    4.4606   -1.3240 H   0  0  0  0  0  0  0  0  0  0  0  0
   -3.5388    3.3431   -1.4663 H   0  0  0  0  0  0  0  0  0  0  0  0
   -2.9362    0.7289   -1.3929 H   0  0  0  0  0  0  0  0  0  0  0  0
   -2.4722    1.1030    0.2757 H   0  0  0  0  0  0  0  0  0  0  0  0
   -0.5561    0.1014   -1.8699 H   0  0  0  0  0  0  0  0  0  0  0  0
    0.2666   -2.1474   -2.0442 H   0  0  0  0  0  0  0  0  0  0  0  0
   -0.4213   -4.5114   -2.1001 H   0  0  0  0  0  0  0  0  0  0  0  0
   -2.4972   -5.2379   -0.9525 H   0  0  0  0  0  0  0  0  0  0  0  0
   -3.8795   -3.5799    0.2675 H   0  0  0  0  0  0  0  0  0  0  0  0
   -3.2136   -1.2217    0.3504 H   0  0  0  0  0  0  0  0  0  0  0  0
    0.9365    1.6378   -1.8017 H   0  0  0  0  0  0  0  0  0  0  0  0
    4.0042    1.4646   -0.5822 H   0  0  0  0  0  0  0  0  0  0  0  0
    5.7891    1.4652    1.1231 H   0  0  0  0  0  0  0  0  0  0  0  0
    5.3123    0.7023    3.4387 H   0  0  0  0  0  0  0  0  0  0  0  0
    3.0203   -0.0558    4.0408 H   0  0  0  0  0  0  0  0  0  0  0  0
  1  2  1  0
  2  3  2  0
  2  4  1  0
  4  5  1  0
  5  6  1  0
  6  7  2  0
  7  8  1  0
  8  9  2  0
  9 10  1  0
 10 11  2  0
  5 12  1  0
 12 13  2  0
 13 14  1  0
 13 15  1  0
 15 16  2  0
 16 17  1  0
 17 18  2  0
 18 19  1  0
 19 20  2  0
 20 21  1  0
 21 22  1  0
 22 23  2  0
 11  6  1  0
 20 15  1  0
 22 12  1  0
  1 24  1  0
  1 25  1  0
  1 26  1  0
  4 27  1  0
  4 28  1  0
  5 29  1  0
  7 30  1  0
  8 31  1  0
  9 32  1  0
 10 33  1  0
 11 34  1  0
 14 35  1  0
 16 36  1  0
 17 37  1  0
 18 38  1  0
 19 39  1  0
M  END
>  <Energy>  (1) 
44.73595148572138

>  <Real charge>  (1) 
0

>  <Mult>  (1) 
1

$$$$
