mol_987 303
     RDKit          3D

 52 54  0  0  0  0  0  0  0  0999 V2000
   -2.6099   -0.9637    0.2426 C   0  0  0  0  0  0  0  0  0  0  0  0
   -2.6333   -0.3493    1.6145 C   0  0  0  0  0  0  0  0  0  0  0  0
   -3.6054   -0.9830    2.5719 C   0  0  0  0  0  0  0  0  0  0  0  0
   -1.8535    0.6827    1.9922 C   0  0  0  0  0  0  0  0  0  0  0  0
   -0.8622    1.3998    1.1766 C   0  0  0  0  0  0  0  0  0  0  0  0
   -1.3404    2.3934    0.1341 C   0  0  0  0  0  0  0  0  0  0  0  0
   -0.7022    2.4832   -1.2001 C   0  0  0  0  0  0  0  0  0  0  0  0
   -0.5618    3.5480   -1.7822 O   0  0  0  0  0  0  0  0  0  0  0  0
   -0.3313    1.2669   -1.6606 O   0  0  0  0  0  0  0  0  0  0  0  0
    0.3626    1.2886   -2.9106 C   0  0  0  0  0  0  0  0  0  0  0  0
    0.9110   -0.0967   -3.1462 C   0  0  0  0  0  0  0  0  0  0  0  0
    0.7149   -0.7564   -4.3663 C   0  0  0  0  0  0  0  0  0  0  0  0
    1.2250   -2.0418   -4.5648 C   0  0  0  0  0  0  0  0  0  0  0  0
    1.9267   -2.6835   -3.5435 C   0  0  0  0  0  0  0  0  0  0  0  0
    2.1189   -2.0418   -2.3213 C   0  0  0  0  0  0  0  0  0  0  0  0
    2.8287   -2.7313   -1.3623 O   0  0  0  0  0  0  0  0  0  0  0  0
    2.4510   -2.5616   -0.0493 C   0  0  0  0  0  0  0  0  0  0  0  0
    1.1325   -2.7402    0.3787 C   0  0  0  0  0  0  0  0  0  0  0  0
    0.8115   -2.5612    1.7246 C   0  0  0  0  0  0  0  0  0  0  0  0
    1.8087   -2.2264    2.6413 C   0  0  0  0  0  0  0  0  0  0  0  0
    3.1298   -2.0783    2.2161 C   0  0  0  0  0  0  0  0  0  0  0  0
    3.4533   -2.2531    0.8702 C   0  0  0  0  0  0  0  0  0  0  0  0
    1.6442   -0.7408   -2.1366 C   0  0  0  0  0  0  0  0  0  0  0  0
   -0.6158    2.8878    1.3785 C   0  0  0  0  0  0  0  0  0  0  0  0
   -1.4312    3.6914    2.3630 C   0  0  0  0  0  0  0  0  0  0  0  0
    0.8157    3.3588    1.2701 C   0  0  0  0  0  0  0  0  0  0  0  0
   -1.8263   -0.5513   -0.3965 H   0  0  0  0  0  0  0  0  0  0  0  0
   -3.5705   -0.8053   -0.2579 H   0  0  0  0  0  0  0  0  0  0  0  0
   -2.4314   -2.0418    0.3150 H   0  0  0  0  0  0  0  0  0  0  0  0
   -4.6246   -0.9133    2.1782 H   0  0  0  0  0  0  0  0  0  0  0  0
   -3.5951   -0.5004    3.5549 H   0  0  0  0  0  0  0  0  0  0  0  0
   -3.3595   -2.0400    2.7177 H   0  0  0  0  0  0  0  0  0  0  0  0
   -1.9358    1.0232    3.0239 H   0  0  0  0  0  0  0  0  0  0  0  0
    0.0041    0.7885    0.9325 H   0  0  0  0  0  0  0  0  0  0  0  0
   -2.4088    2.5813    0.0839 H   0  0  0  0  0  0  0  0  0  0  0  0
   -0.3416    1.5680   -3.7024 H   0  0  0  0  0  0  0  0  0  0  0  0
    1.1943    2.0029   -2.8861 H   0  0  0  0  0  0  0  0  0  0  0  0
    0.1617   -0.2762   -5.1706 H   0  0  0  0  0  0  0  0  0  0  0  0
    1.0713   -2.5463   -5.5154 H   0  0  0  0  0  0  0  0  0  0  0  0
    2.3174   -3.6854   -3.6981 H   0  0  0  0  0  0  0  0  0  0  0  0
    0.3544   -3.0110   -0.3293 H   0  0  0  0  0  0  0  0  0  0  0  0
   -0.2157   -2.6827    2.0585 H   0  0  0  0  0  0  0  0  0  0  0  0
    1.5565   -2.0874    3.6895 H   0  0  0  0  0  0  0  0  0  0  0  0
    3.9071   -1.8277    2.9332 H   0  0  0  0  0  0  0  0  0  0  0  0
    4.4808   -2.1396    0.5367 H   0  0  0  0  0  0  0  0  0  0  0  0
    1.8259   -0.2231   -1.1975 H   0  0  0  0  0  0  0  0  0  0  0  0
   -1.0472    3.5499    3.3786 H   0  0  0  0  0  0  0  0  0  0  0  0
   -1.3727    4.7579    2.1207 H   0  0  0  0  0  0  0  0  0  0  0  0
   -2.4904    3.4135    2.3579 H   0  0  0  0  0  0  0  0  0  0  0  0
    1.2951    3.3383    2.2545 H   0  0  0  0  0  0  0  0  0  0  0  0
    1.4128    2.7310    0.6000 H   0  0  0  0  0  0  0  0  0  0  0  0
    0.8510    4.3858    0.8920 H   0  0  0  0  0  0  0  0  0  0  0  0
  1  2  1  0
  2  3  1  0
  2  4  2  3
  4  5  1  0
  5  6  1  0
  6  7  1  0
  7  8  2  0
  7  9  1  0
  9 10  1  0
 10 11  1  0
 11 12  2  0
 12 13  1  0
 13 14  2  0
 14 15  1  0
 15 16  1  0
 16 17  1  0
 17 18  2  0
 18 19  1  0
 19 20  2  0
 20 21  1  0
 21 22  2  0
 15 23  2  0
  6 24  1  0
 24 25  1  0
 24 26  1  0
 22 17  1  0
 23 11  1  0
 24  5  1  0
  1 27  1  0
  1 28  1  0
  1 29  1  0
  3 30  1  0
  3 31  1  0
  3 32  1  0
  4 33  1  0
  5 34  1  0
  6 35  1  0
 10 36  1  0
 10 37  1  0
 12 38  1  0
 13 39  1  0
 14 40  1  0
 18 41  1  0
 19 42  1  0
 20 43  1  0
 21 44  1  0
 22 45  1  0
 23 46  1  0
 25 47  1  0
 25 48  1  0
 25 49  1  0
 26 50  1  0
 26 51  1  0
 26 52  1  0
M  END
>  <Energy>  (1) 
54.57826053241899

>  <Real charge>  (1) 
0

>  <Mult>  (1) 
1

$$$$
mol_987 618
     RDKit          3D

 52 54  0  0  0  0  0  0  0  0999 V2000
   -0.3459   -1.7026    3.1506 C   0  0  0  0  0  0  0  0  0  0  0  0
   -1.6921   -1.6030    2.4890 C   0  0  0  0  0  0  0  0  0  0  0  0
   -2.6554   -2.7018    2.8444 C   0  0  0  0  0  0  0  0  0  0  0  0
   -2.0386   -0.6148    1.6411 C   0  0  0  0  0  0  0  0  0  0  0  0
   -1.2046    0.5141    1.2042 C   0  0  0  0  0  0  0  0  0  0  0  0
   -1.8759    1.8334    0.8701 C   0  0  0  0  0  0  0  0  0  0  0  0
   -1.4557    2.6390   -0.3002 C   0  0  0  0  0  0  0  0  0  0  0  0
   -1.4683    3.8604   -0.2825 O   0  0  0  0  0  0  0  0  0  0  0  0
   -1.0950    1.8580   -1.3452 O   0  0  0  0  0  0  0  0  0  0  0  0
   -0.6059    2.5804   -2.4783 C   0  0  0  0  0  0  0  0  0  0  0  0
    0.0519    1.5859   -3.4010 C   0  0  0  0  0  0  0  0  0  0  0  0
   -0.3297    1.4797   -4.7448 C   0  0  0  0  0  0  0  0  0  0  0  0
    0.2885    0.5495   -5.5839 C   0  0  0  0  0  0  0  0  0  0  0  0
    1.2852   -0.2899   -5.0857 C   0  0  0  0  0  0  0  0  0  0  0  0
    1.6625   -0.2036   -3.7467 C   0  0  0  0  0  0  0  0  0  0  0  0
    2.6612   -1.0539   -3.3260 O   0  0  0  0  0  0  0  0  0  0  0  0
    2.5530   -1.5872   -2.0611 C   0  0  0  0  0  0  0  0  0  0  0  0
    1.3862   -2.2042   -1.6011 C   0  0  0  0  0  0  0  0  0  0  0  0
    1.3473   -2.7399   -0.3133 C   0  0  0  0  0  0  0  0  0  0  0  0
    2.4778   -2.6784    0.5023 C   0  0  0  0  0  0  0  0  0  0  0  0
    3.6501   -2.0862    0.0311 C   0  0  0  0  0  0  0  0  0  0  0  0
    3.6904   -1.5460   -1.2547 C   0  0  0  0  0  0  0  0  0  0  0  0
    1.0724    0.7524   -2.9162 C   0  0  0  0  0  0  0  0  0  0  0  0
   -0.9880    1.7216    2.1019 C   0  0  0  0  0  0  0  0  0  0  0  0
    0.3895    2.3405    2.0869 C   0  0  0  0  0  0  0  0  0  0  0  0
   -1.6699    1.8201    3.4455 C   0  0  0  0  0  0  0  0  0  0  0  0
    0.1132   -2.6712    2.9273 H   0  0  0  0  0  0  0  0  0  0  0  0
    0.3511   -0.9273    2.8205 H   0  0  0  0  0  0  0  0  0  0  0  0
   -0.4531   -1.6140    4.2366 H   0  0  0  0  0  0  0  0  0  0  0  0
   -2.2466   -3.6741    2.5504 H   0  0  0  0  0  0  0  0  0  0  0  0
   -3.6231   -2.5832    2.3457 H   0  0  0  0  0  0  0  0  0  0  0  0
   -2.8368   -2.7120    3.9241 H   0  0  0  0  0  0  0  0  0  0  0  0
   -3.0377   -0.6458    1.2069 H   0  0  0  0  0  0  0  0  0  0  0  0
   -0.3762    0.2064    0.5696 H   0  0  0  0  0  0  0  0  0  0  0  0
   -2.9437    1.9125    1.0504 H   0  0  0  0  0  0  0  0  0  0  0  0
   -1.4493    3.0746   -2.9736 H   0  0  0  0  0  0  0  0  0  0  0  0
    0.1350    3.3327   -2.1811 H   0  0  0  0  0  0  0  0  0  0  0  0
   -1.1118    2.1190   -5.1486 H   0  0  0  0  0  0  0  0  0  0  0  0
   -0.0101    0.4758   -6.6266 H   0  0  0  0  0  0  0  0  0  0  0  0
    1.7620   -1.0159   -5.7385 H   0  0  0  0  0  0  0  0  0  0  0  0
    0.5072   -2.2684   -2.2364 H   0  0  0  0  0  0  0  0  0  0  0  0
    0.4362   -3.2070    0.0521 H   0  0  0  0  0  0  0  0  0  0  0  0
    2.4473   -3.0994    1.5040 H   0  0  0  0  0  0  0  0  0  0  0  0
    4.5329   -2.0477    0.6638 H   0  0  0  0  0  0  0  0  0  0  0  0
    4.6029   -1.0875   -1.6253 H   0  0  0  0  0  0  0  0  0  0  0  0
    1.3917    0.8460   -1.8806 H   0  0  0  0  0  0  0  0  0  0  0  0
    0.8993    2.2023    1.1274 H   0  0  0  0  0  0  0  0  0  0  0  0
    1.0165    1.8853    2.8608 H   0  0  0  0  0  0  0  0  0  0  0  0
    0.3258    3.4156    2.2846 H   0  0  0  0  0  0  0  0  0  0  0  0
   -1.1119    1.2544    4.1988 H   0  0  0  0  0  0  0  0  0  0  0  0
   -1.7152    2.8657    3.7688 H   0  0  0  0  0  0  0  0  0  0  0  0
   -2.6965    1.4398    3.4260 H   0  0  0  0  0  0  0  0  0  0  0  0
  1  2  1  0
  2  3  1  0
  2  4  2  3
  4  5  1  0
  5  6  1  0
  6  7  1  0
  7  8  2  0
  7  9  1  0
  9 10  1  0
 10 11  1  0
 11 12  2  0
 12 13  1  0
 13 14  2  0
 14 15  1  0
 15 16  1  0
 16 17  1  0
 17 18  2  0
 18 19  1  0
 19 20  2  0
 20 21  1  0
 21 22  2  0
 15 23  2  0
  6 24  1  0
 24 25  1  0
 24 26  1  0
 22 17  1  0
 23 11  1  0
 24  5  1  0
  1 27  1  0
  1 28  1  0
  1 29  1  0
  3 30  1  0
  3 31  1  0
  3 32  1  0
  4 33  1  0
  5 34  1  0
  6 35  1  0
 10 36  1  0
 10 37  1  0
 12 38  1  0
 13 39  1  0
 14 40  1  0
 18 41  1  0
 19 42  1  0
 20 43  1  0
 21 44  1  0
 22 45  1  0
 23 46  1  0
 25 47  1  0
 25 48  1  0
 25 49  1  0
 26 50  1  0
 26 51  1  0
 26 52  1  0
M  END
>  <Energy>  (2) 
54.70715307758895

>  <Real charge>  (2) 
0

>  <Mult>  (2) 
1

$$$$
mol_987 266
     RDKit          3D

 52 54  0  0  0  0  0  0  0  0999 V2000
   -2.5269   -2.8908    0.8392 C   0  0  0  0  0  0  0  0  0  0  0  0
   -1.1833   -3.0715    0.1897 C   0  0  0  0  0  0  0  0  0  0  0  0
   -0.4591   -4.3332    0.5705 C   0  0  0  0  0  0  0  0  0  0  0  0
   -0.6419   -2.1859   -0.6693 C   0  0  0  0  0  0  0  0  0  0  0  0
   -1.2242   -0.9121   -1.1144 C   0  0  0  0  0  0  0  0  0  0  0  0
   -0.8474   -0.3761   -2.4839 C   0  0  0  0  0  0  0  0  0  0  0  0
   -0.5411    1.0608   -2.6786 C   0  0  0  0  0  0  0  0  0  0  0  0
   -0.7998    1.6461   -3.7189 O   0  0  0  0  0  0  0  0  0  0  0  0
    0.0750    1.5876   -1.5959 O   0  0  0  0  0  0  0  0  0  0  0  0
    0.4365    2.9661   -1.7194 C   0  0  0  0  0  0  0  0  0  0  0  0
    0.9843    3.4290   -0.3904 C   0  0  0  0  0  0  0  0  0  0  0  0
    0.7005    4.7142    0.0915 C   0  0  0  0  0  0  0  0  0  0  0  0
    1.2081    5.1380    1.3225 C   0  0  0  0  0  0  0  0  0  0  0  0
    1.9976    4.2797    2.0881 C   0  0  0  0  0  0  0  0  0  0  0  0
    2.2822    2.9970    1.6237 C   0  0  0  0  0  0  0  0  0  0  0  0
    3.0751    2.2059    2.4264 O   0  0  0  0  0  0  0  0  0  0  0  0
    2.7900    0.8593    2.4735 C   0  0  0  0  0  0  0  0  0  0  0  0
    1.5032    0.3710    2.7184 C   0  0  0  0  0  0  0  0  0  0  0  0
    1.2806   -1.0059    2.7598 C   0  0  0  0  0  0  0  0  0  0  0  0
    2.3449   -1.8904    2.5813 C   0  0  0  0  0  0  0  0  0  0  0  0
    3.6342   -1.4005    2.3683 C   0  0  0  0  0  0  0  0  0  0  0  0
    3.8587   -0.0240    2.3209 C   0  0  0  0  0  0  0  0  0  0  0  0
    1.8110    2.5888    0.3729 C   0  0  0  0  0  0  0  0  0  0  0  0
   -2.2653   -0.8607   -2.2202 C   0  0  0  0  0  0  0  0  0  0  0  0
   -3.3774    0.1487   -2.0656 C   0  0  0  0  0  0  0  0  0  0  0  0
   -2.7008   -2.1233   -2.9245 C   0  0  0  0  0  0  0  0  0  0  0  0
   -3.0159   -1.9544    0.5562 H   0  0  0  0  0  0  0  0  0  0  0  0
   -2.4210   -2.8891    1.9291 H   0  0  0  0  0  0  0  0  0  0  0  0
   -3.1949   -3.7111    0.5570 H   0  0  0  0  0  0  0  0  0  0  0  0
    0.5144   -4.4186    0.0763 H   0  0  0  0  0  0  0  0  0  0  0  0
   -0.2862   -4.3593    1.6514 H   0  0  0  0  0  0  0  0  0  0  0  0
   -1.0525   -5.2098    0.2911 H   0  0  0  0  0  0  0  0  0  0  0  0
    0.3478   -2.4072   -1.0687 H   0  0  0  0  0  0  0  0  0  0  0  0
   -1.3142   -0.1868   -0.3086 H   0  0  0  0  0  0  0  0  0  0  0  0
   -0.2332   -1.0072   -3.1190 H   0  0  0  0  0  0  0  0  0  0  0  0
    1.2082    3.0827   -2.4888 H   0  0  0  0  0  0  0  0  0  0  0  0
   -0.4503    3.5531   -1.9860 H   0  0  0  0  0  0  0  0  0  0  0  0
    0.0789    5.3947   -0.4868 H   0  0  0  0  0  0  0  0  0  0  0  0
    0.9836    6.1370    1.6877 H   0  0  0  0  0  0  0  0  0  0  0  0
    2.3855    4.6081    3.0484 H   0  0  0  0  0  0  0  0  0  0  0  0
    0.6726    1.0546    2.8701 H   0  0  0  0  0  0  0  0  0  0  0  0
    0.2778   -1.3887    2.9308 H   0  0  0  0  0  0  0  0  0  0  0  0
    2.1695   -2.9626    2.6144 H   0  0  0  0  0  0  0  0  0  0  0  0
    4.4640   -2.0903    2.2394 H   0  0  0  0  0  0  0  0  0  0  0  0
    4.8614    0.3597    2.1555 H   0  0  0  0  0  0  0  0  0  0  0  0
    2.0699    1.6030   -0.0071 H   0  0  0  0  0  0  0  0  0  0  0  0
   -3.0666    1.0284   -1.4921 H   0  0  0  0  0  0  0  0  0  0  0  0
   -3.7210    0.4894   -3.0478 H   0  0  0  0  0  0  0  0  0  0  0  0
   -4.2268   -0.3023   -1.5416 H   0  0  0  0  0  0  0  0  0  0  0  0
   -3.1448   -1.8792   -3.8955 H   0  0  0  0  0  0  0  0  0  0  0  0
   -1.8688   -2.8107   -3.1095 H   0  0  0  0  0  0  0  0  0  0  0  0
   -3.4522   -2.6517   -2.3286 H   0  0  0  0  0  0  0  0  0  0  0  0
  1  2  1  0
  2  3  1  0
  2  4  2  3
  4  5  1  0
  5  6  1  0
  6  7  1  0
  7  8  2  0
  7  9  1  0
  9 10  1  0
 10 11  1  0
 11 12  2  0
 12 13  1  0
 13 14  2  0
 14 15  1  0
 15 16  1  0
 16 17  1  0
 17 18  2  0
 18 19  1  0
 19 20  2  0
 20 21  1  0
 21 22  2  0
 15 23  2  0
  6 24  1  0
 24 25  1  0
 24 26  1  0
 22 17  1  0
 23 11  1  0
 24  5  1  0
  1 27  1  0
  1 28  1  0
  1 29  1  0
  3 30  1  0
  3 31  1  0
  3 32  1  0
  4 33  1  0
  5 34  1  0
  6 35  1  0
 10 36  1  0
 10 37  1  0
 12 38  1  0
 13 39  1  0
 14 40  1  0
 18 41  1  0
 19 42  1  0
 20 43  1  0
 21 44  1  0
 22 45  1  0
 23 46  1  0
 25 47  1  0
 25 48  1  0
 25 49  1  0
 26 50  1  0
 26 51  1  0
 26 52  1  0
M  END
>  <Energy>  (3) 
55.2558972287585

>  <Real charge>  (3) 
0

>  <Mult>  (3) 
1

$$$$
mol_987 51
     RDKit          3D

 52 54  0  0  0  0  0  0  0  0999 V2000
   -3.3930   -0.8906   -2.7255 C   0  0  0  0  0  0  0  0  0  0  0  0
   -2.6412   -0.4372   -1.5036 C   0  0  0  0  0  0  0  0  0  0  0  0
   -1.1466   -0.5635   -1.6023 C   0  0  0  0  0  0  0  0  0  0  0  0
   -3.2892    0.0321   -0.4194 C   0  0  0  0  0  0  0  0  0  0  0  0
   -2.6982    0.5081    0.8400 C   0  0  0  0  0  0  0  0  0  0  0  0
   -2.0182    1.8620    0.8702 C   0  0  0  0  0  0  0  0  0  0  0  0
   -0.7578    2.0868    1.6147 C   0  0  0  0  0  0  0  0  0  0  0  0
   -0.5269    3.1428    2.1848 O   0  0  0  0  0  0  0  0  0  0  0  0
    0.0721    1.0174    1.5496 O   0  0  0  0  0  0  0  0  0  0  0  0
    1.3105    1.2118    2.2309 C   0  0  0  0  0  0  0  0  0  0  0  0
    2.1386   -0.0308    2.0333 C   0  0  0  0  0  0  0  0  0  0  0  0
    2.1428   -1.0491    2.9976 C   0  0  0  0  0  0  0  0  0  0  0  0
    2.9081   -2.2018    2.8085 C   0  0  0  0  0  0  0  0  0  0  0  0
    3.6639   -2.3548    1.6472 C   0  0  0  0  0  0  0  0  0  0  0  0
    3.6372   -1.3649    0.6661 C   0  0  0  0  0  0  0  0  0  0  0  0
    4.4279   -1.5625   -0.4433 O   0  0  0  0  0  0  0  0  0  0  0  0
    3.8608   -1.3130   -1.6723 C   0  0  0  0  0  0  0  0  0  0  0  0
    2.6254   -1.8436   -2.0518 C   0  0  0  0  0  0  0  0  0  0  0  0
    2.1262   -1.5885   -3.3299 C   0  0  0  0  0  0  0  0  0  0  0  0
    2.8640   -0.8152   -4.2270 C   0  0  0  0  0  0  0  0  0  0  0  0
    4.1069   -0.3037   -3.8522 C   0  0  0  0  0  0  0  0  0  0  0  0
    4.6101   -0.5601   -2.5766 C   0  0  0  0  0  0  0  0  0  0  0  0
    2.8905   -0.1995    0.8609 C   0  0  0  0  0  0  0  0  0  0  0  0
   -3.3328    1.6576    1.6102 C   0  0  0  0  0  0  0  0  0  0  0  0
   -4.5357    2.3938    1.0705 C   0  0  0  0  0  0  0  0  0  0  0  0
   -3.3311    1.5494    3.1171 C   0  0  0  0  0  0  0  0  0  0  0  0
   -3.1878   -1.9470   -2.9271 H   0  0  0  0  0  0  0  0  0  0  0  0
   -3.0869   -0.3036   -3.5976 H   0  0  0  0  0  0  0  0  0  0  0  0
   -4.4764   -0.7776   -2.6127 H   0  0  0  0  0  0  0  0  0  0  0  0
   -0.8729   -1.5979   -1.8353 H   0  0  0  0  0  0  0  0  0  0  0  0
   -0.7646    0.0843   -2.3979 H   0  0  0  0  0  0  0  0  0  0  0  0
   -0.6319   -0.2953   -0.6773 H   0  0  0  0  0  0  0  0  0  0  0  0
   -4.3783    0.0471   -0.4526 H   0  0  0  0  0  0  0  0  0  0  0  0
   -2.2529   -0.2916    1.4274 H   0  0  0  0  0  0  0  0  0  0  0  0
   -2.0579    2.4540   -0.0396 H   0  0  0  0  0  0  0  0  0  0  0  0
    1.8424    2.0802    1.8224 H   0  0  0  0  0  0  0  0  0  0  0  0
    1.1308    1.3825    3.2995 H   0  0  0  0  0  0  0  0  0  0  0  0
    1.5524   -0.9476    3.9059 H   0  0  0  0  0  0  0  0  0  0  0  0
    2.9157   -2.9800    3.5673 H   0  0  0  0  0  0  0  0  0  0  0  0
    4.2655   -3.2477    1.5019 H   0  0  0  0  0  0  0  0  0  0  0  0
    2.0534   -2.4597   -1.3637 H   0  0  0  0  0  0  0  0  0  0  0  0
    1.1651   -1.9986   -3.6287 H   0  0  0  0  0  0  0  0  0  0  0  0
    2.4742   -0.6188   -5.2227 H   0  0  0  0  0  0  0  0  0  0  0  0
    4.6859    0.2893   -4.5553 H   0  0  0  0  0  0  0  0  0  0  0  0
    5.5820   -0.1712   -2.2858 H   0  0  0  0  0  0  0  0  0  0  0  0
    2.8945    0.5808    0.1038 H   0  0  0  0  0  0  0  0  0  0  0  0
   -4.6234    3.3757    1.5477 H   0  0  0  0  0  0  0  0  0  0  0  0
   -5.4508    1.8295    1.2784 H   0  0  0  0  0  0  0  0  0  0  0  0
   -4.4771    2.5606   -0.0102 H   0  0  0  0  0  0  0  0  0  0  0  0
   -2.4865    0.9622    3.4931 H   0  0  0  0  0  0  0  0  0  0  0  0
   -3.2791    2.5448    3.5702 H   0  0  0  0  0  0  0  0  0  0  0  0
   -4.2497    1.0627    3.4615 H   0  0  0  0  0  0  0  0  0  0  0  0
  1  2  1  0
  2  3  1  0
  2  4  2  3
  4  5  1  0
  5  6  1  0
  6  7  1  0
  7  8  2  0
  7  9  1  0
  9 10  1  0
 10 11  1  0
 11 12  2  0
 12 13  1  0
 13 14  2  0
 14 15  1  0
 15 16  1  0
 16 17  1  0
 17 18  2  0
 18 19  1  0
 19 20  2  0
 20 21  1  0
 21 22  2  0
 15 23  2  0
  6 24  1  0
 24 25  1  0
 24 26  1  0
 22 17  1  0
 23 11  1  0
 24  5  1  0
  1 27  1  0
  1 28  1  0
  1 29  1  0
  3 30  1  0
  3 31  1  0
  3 32  1  0
  4 33  1  0
  5 34  1  0
  6 35  1  0
 10 36  1  0
 10 37  1  0
 12 38  1  0
 13 39  1  0
 14 40  1  0
 18 41  1  0
 19 42  1  0
 20 43  1  0
 21 44  1  0
 22 45  1  0
 23 46  1  0
 25 47  1  0
 25 48  1  0
 25 49  1  0
 26 50  1  0
 26 51  1  0
 26 52  1  0
M  END
>  <Energy>  (4) 
55.26719280230353

>  <Real charge>  (4) 
0

>  <Mult>  (4) 
1

$$$$
mol_987 165
     RDKit          3D

 52 54  0  0  0  0  0  0  0  0999 V2000
   -0.3829    2.1468   -0.2657 C   0  0  0  0  0  0  0  0  0  0  0  0
   -1.8234    2.4572   -0.5615 C   0  0  0  0  0  0  0  0  0  0  0  0
   -2.1821    3.9160   -0.4765 C   0  0  0  0  0  0  0  0  0  0  0  0
   -2.7486    1.5280   -0.8715 C   0  0  0  0  0  0  0  0  0  0  0  0
   -2.5593    0.0740   -0.9866 C   0  0  0  0  0  0  0  0  0  0  0  0
   -1.7986   -0.4847   -2.1715 C   0  0  0  0  0  0  0  0  0  0  0  0
   -0.8516   -1.6169   -2.0427 C   0  0  0  0  0  0  0  0  0  0  0  0
   -0.6498   -2.3908   -2.9668 O   0  0  0  0  0  0  0  0  0  0  0  0
   -0.2523   -1.6548   -0.8268 O   0  0  0  0  0  0  0  0  0  0  0  0
    0.6885   -2.7226   -0.6864 C   0  0  0  0  0  0  0  0  0  0  0  0
    1.3075   -2.6814    0.6911 C   0  0  0  0  0  0  0  0  0  0  0  0
    1.6232   -3.8754    1.3565 C   0  0  0  0  0  0  0  0  0  0  0  0
    2.2200   -3.8502    2.6188 C   0  0  0  0  0  0  0  0  0  0  0  0
    2.5239   -2.6314    3.2232 C   0  0  0  0  0  0  0  0  0  0  0  0
    2.2478   -1.4371    2.5593 C   0  0  0  0  0  0  0  0  0  0  0  0
    2.5511   -0.2746    3.2336 O   0  0  0  0  0  0  0  0  0  0  0  0
    3.0314    0.7834    2.4975 C   0  0  0  0  0  0  0  0  0  0  0  0
    2.4214    2.0234    2.6868 C   0  0  0  0  0  0  0  0  0  0  0  0
    2.8853    3.1388    1.9890 C   0  0  0  0  0  0  0  0  0  0  0  0
    3.9672    3.0147    1.1163 C   0  0  0  0  0  0  0  0  0  0  0  0
    4.5925    1.7784    0.9474 C   0  0  0  0  0  0  0  0  0  0  0  0
    4.1312    0.6614    1.6449 C   0  0  0  0  0  0  0  0  0  0  0  0
    1.6309   -1.4607    1.3046 C   0  0  0  0  0  0  0  0  0  0  0  0
   -3.2989   -0.7164   -2.0577 C   0  0  0  0  0  0  0  0  0  0  0  0
   -4.1701   -0.0266   -3.0803 C   0  0  0  0  0  0  0  0  0  0  0  0
   -3.8148   -2.0802   -1.6622 C   0  0  0  0  0  0  0  0  0  0  0  0
    0.2684    2.6417   -0.9933 H   0  0  0  0  0  0  0  0  0  0  0  0
   -0.1207    2.5053    0.7348 H   0  0  0  0  0  0  0  0  0  0  0  0
   -0.1628    1.0777   -0.2965 H   0  0  0  0  0  0  0  0  0  0  0  0
   -1.5872    4.4943   -1.1910 H   0  0  0  0  0  0  0  0  0  0  0  0
   -3.2386    4.0980   -0.6996 H   0  0  0  0  0  0  0  0  0  0  0  0
   -1.9841    4.2972    0.5306 H   0  0  0  0  0  0  0  0  0  0  0  0
   -3.7698    1.8715   -1.0355 H   0  0  0  0  0  0  0  0  0  0  0  0
   -2.4202   -0.4113   -0.0233 H   0  0  0  0  0  0  0  0  0  0  0  0
   -1.4702    0.2277   -2.9230 H   0  0  0  0  0  0  0  0  0  0  0  0
    0.1667   -3.6765   -0.8301 H   0  0  0  0  0  0  0  0  0  0  0  0
    1.4868   -2.6212   -1.4315 H   0  0  0  0  0  0  0  0  0  0  0  0
    1.3991   -4.8367    0.8981 H   0  0  0  0  0  0  0  0  0  0  0  0
    2.4469   -4.7813    3.1319 H   0  0  0  0  0  0  0  0  0  0  0  0
    2.9819   -2.6117    4.2083 H   0  0  0  0  0  0  0  0  0  0  0  0
    1.5828    2.1175    3.3710 H   0  0  0  0  0  0  0  0  0  0  0  0
    2.4063    4.1043    2.1285 H   0  0  0  0  0  0  0  0  0  0  0  0
    4.3300    3.8845    0.5744 H   0  0  0  0  0  0  0  0  0  0  0  0
    5.4436    1.6862    0.2777 H   0  0  0  0  0  0  0  0  0  0  0  0
    4.6314   -0.2953    1.5237 H   0  0  0  0  0  0  0  0  0  0  0  0
    1.3906   -0.5275    0.8019 H   0  0  0  0  0  0  0  0  0  0  0  0
   -3.7363    0.9133   -3.4374 H   0  0  0  0  0  0  0  0  0  0  0  0
   -5.1543    0.1935   -2.6538 H   0  0  0  0  0  0  0  0  0  0  0  0
   -4.3123   -0.6728   -3.9531 H   0  0  0  0  0  0  0  0  0  0  0  0
   -3.2116   -2.5431   -0.8741 H   0  0  0  0  0  0  0  0  0  0  0  0
   -3.8149   -2.7523   -2.5267 H   0  0  0  0  0  0  0  0  0  0  0  0
   -4.8410   -2.0015   -1.2880 H   0  0  0  0  0  0  0  0  0  0  0  0
  1  2  1  0
  2  3  1  0
  2  4  2  3
  4  5  1  0
  5  6  1  0
  6  7  1  0
  7  8  2  0
  7  9  1  0
  9 10  1  0
 10 11  1  0
 11 12  2  0
 12 13  1  0
 13 14  2  0
 14 15  1  0
 15 16  1  0
 16 17  1  0
 17 18  2  0
 18 19  1  0
 19 20  2  0
 20 21  1  0
 21 22  2  0
 15 23  2  0
  6 24  1  0
 24 25  1  0
 24 26  1  0
 22 17  1  0
 23 11  1  0
 24  5  1  0
  1 27  1  0
  1 28  1  0
  1 29  1  0
  3 30  1  0
  3 31  1  0
  3 32  1  0
  4 33  1  0
  5 34  1  0
  6 35  1  0
 10 36  1  0
 10 37  1  0
 12 38  1  0
 13 39  1  0
 14 40  1  0
 18 41  1  0
 19 42  1  0
 20 43  1  0
 21 44  1  0
 22 45  1  0
 23 46  1  0
 25 47  1  0
 25 48  1  0
 25 49  1  0
 26 50  1  0
 26 51  1  0
 26 52  1  0
M  END
>  <Energy>  (5) 
55.397834917674274

>  <Real charge>  (5) 
0

>  <Mult>  (5) 
1

$$$$
