mol_517 13
     RDKit          3D

  6  5  0  0  0  0  0  0  0  0999 V2000
   -0.4863    0.0009   -0.0012 C   0  0  0  0  0  0  0  0  0  0  0  0
    0.9756   -0.0018    0.0024 C   0  0  0  0  0  0  0  0  0  0  0  0
    2.1358   -0.0040    0.0052 N   0  0  0  0  0  0  0  0  0  0  0  0
   -0.8776   -0.0436    1.0195 H   0  0  0  0  0  0  0  0  0  0  0  0
   -0.8722    0.9090   -0.4738 H   0  0  0  0  0  0  0  0  0  0  0  0
   -0.8753   -0.8605   -0.5521 H   0  0  0  0  0  0  0  0  0  0  0  0
  1  2  1  0
  2  3  3  0
  1  4  1  0
  1  5  1  0
  1  6  1  0
M  END
>  <Energy>  (1) 
0.02462649447053364

>  <Real charge>  (1) 
0

>  <Mult>  (1) 
1

$$$$
