mol_750 174
     RDKit          3D

 29 30  0  0  0  0  0  0  0  0999 V2000
   -2.0004   -0.8184    0.5526 C   0  0  0  0  0  0  0  0  0  0  0  0
   -0.9310    0.1516    0.0105 C   0  0  0  0  0  0  0  0  0  0  0  0
   -1.5158    1.5684    0.1778 C   0  0  0  0  0  0  0  0  0  0  0  0
   -0.4569   -0.1721   -1.4316 C   0  0  0  0  0  0  0  0  0  0  0  0
    0.1995   -1.5638   -1.2916 C   0  0  0  0  0  0  0  0  0  0  0  0
    0.8587   -1.4939    0.0963 C   0  0  0  0  0  0  0  0  0  0  0  0
    0.5088   -0.0552    0.5714 C   0  0  0  0  0  0  0  0  0  0  0  0
    0.6958    0.1270    2.0662 C   0  0  0  0  0  0  0  0  0  0  0  0
    1.3456    0.9450   -0.2823 C   0  0  0  0  0  0  0  0  0  0  0  0
    2.7233    0.6185   -0.3430 O   0  0  0  0  0  0  0  0  0  0  0  0
    0.6971    0.8307   -1.6744 C   0  0  0  0  0  0  0  0  0  0  0  0
   -1.7154   -1.8720    0.5255 H   0  0  0  0  0  0  0  0  0  0  0  0
   -2.9254   -0.7278   -0.0288 H   0  0  0  0  0  0  0  0  0  0  0  0
   -2.2401   -0.5852    1.5963 H   0  0  0  0  0  0  0  0  0  0  0  0
   -0.8637    2.3747   -0.1634 H   0  0  0  0  0  0  0  0  0  0  0  0
   -2.4507    1.6626   -0.3871 H   0  0  0  0  0  0  0  0  0  0  0  0
   -1.7422    1.7707    1.2309 H   0  0  0  0  0  0  0  0  0  0  0  0
   -1.2291   -0.1353   -2.2036 H   0  0  0  0  0  0  0  0  0  0  0  0
    0.9332   -1.7627   -2.0799 H   0  0  0  0  0  0  0  0  0  0  0  0
   -0.5461   -2.3650   -1.3290 H   0  0  0  0  0  0  0  0  0  0  0  0
    1.9359   -1.6804    0.0409 H   0  0  0  0  0  0  0  0  0  0  0  0
    0.4415   -2.2587    0.7609 H   0  0  0  0  0  0  0  0  0  0  0  0
    1.7337   -0.0636    2.3587 H   0  0  0  0  0  0  0  0  0  0  0  0
    0.4441    1.1461    2.3769 H   0  0  0  0  0  0  0  0  0  0  0  0
    0.0616   -0.5615    2.6340 H   0  0  0  0  0  0  0  0  0  0  0  0
    1.2700    1.9714    0.0927 H   0  0  0  0  0  0  0  0  0  0  0  0
    3.0736    0.6579    0.5629 H   0  0  0  0  0  0  0  0  0  0  0  0
    0.2993    1.8004   -1.9929 H   0  0  0  0  0  0  0  0  0  0  0  0
    1.3950    0.4907   -2.4470 H   0  0  0  0  0  0  0  0  0  0  0  0
  1  2  1  0
  2  3  1  0
  2  4  1  0
  4  5  1  0
  5  6  1  0
  6  7  1  0
  7  8  1  0
  7  9  1  0
  9 10  1  0
  9 11  1  0
  7  2  1  0
 11  4  1  0
  1 12  1  0
  1 13  1  0
  1 14  1  0
  3 15  1  0
  3 16  1  0
  3 17  1  0
  4 18  1  0
  5 19  1  0
  5 20  1  0
  6 21  1  0
  6 22  1  0
  8 23  1  0
  8 24  1  0
  8 25  1  0
  9 26  1  0
 10 27  1  0
 11 28  1  0
 11 29  1  0
M  END
>  <Energy>  (1) 
54.850530513224534

>  <Real charge>  (1) 
0

>  <Mult>  (1) 
1

$$$$
mol_750 178
     RDKit          3D

 29 30  0  0  0  0  0  0  0  0999 V2000
   -0.1577   -1.7750    1.1313 C   0  0  0  0  0  0  0  0  0  0  0  0
   -0.4559   -0.7616    0.0093 C   0  0  0  0  0  0  0  0  0  0  0  0
   -1.8909   -1.0744   -0.4663 C   0  0  0  0  0  0  0  0  0  0  0  0
    0.5986   -0.7505   -1.1266 C   0  0  0  0  0  0  0  0  0  0  0  0
    0.1344    0.4090   -2.0363 C   0  0  0  0  0  0  0  0  0  0  0  0
   -0.4165    1.4353   -1.0308 C   0  0  0  0  0  0  0  0  0  0  0  0
   -0.1793    0.7396    0.3406 C   0  0  0  0  0  0  0  0  0  0  0  0
   -1.0006    1.3487    1.4619 C   0  0  0  0  0  0  0  0  0  0  0  0
    1.3626    0.7937    0.5654 C   0  0  0  0  0  0  0  0  0  0  0  0
    1.7281    0.4886    1.9008 O   0  0  0  0  0  0  0  0  0  0  0  0
    1.8883   -0.2712   -0.4172 C   0  0  0  0  0  0  0  0  0  0  0  0
    0.8543   -1.7297    1.5348 H   0  0  0  0  0  0  0  0  0  0  0  0
   -0.2910   -2.7992    0.7626 H   0  0  0  0  0  0  0  0  0  0  0  0
   -0.8453   -1.6348    1.9728 H   0  0  0  0  0  0  0  0  0  0  0  0
   -2.2669   -0.4128   -1.2492 H   0  0  0  0  0  0  0  0  0  0  0  0
   -2.5977   -1.0050    0.3686 H   0  0  0  0  0  0  0  0  0  0  0  0
   -1.9461   -2.0943   -0.8645 H   0  0  0  0  0  0  0  0  0  0  0  0
    0.7277   -1.6939   -1.6624 H   0  0  0  0  0  0  0  0  0  0  0  0
    0.9513    0.8254   -2.6351 H   0  0  0  0  0  0  0  0  0  0  0  0
   -0.6483    0.0856   -2.7306 H   0  0  0  0  0  0  0  0  0  0  0  0
    0.1071    2.3946   -1.1092 H   0  0  0  0  0  0  0  0  0  0  0  0
   -1.4772    1.6346   -1.2179 H   0  0  0  0  0  0  0  0  0  0  0  0
   -0.7185    2.3945    1.6245 H   0  0  0  0  0  0  0  0  0  0  0  0
   -0.8576    0.8136    2.4059 H   0  0  0  0  0  0  0  0  0  0  0  0
   -2.0701    1.3273    1.2284 H   0  0  0  0  0  0  0  0  0  0  0  0
    1.7711    1.7842    0.3354 H   0  0  0  0  0  0  0  0  0  0  0  0
    2.6993    0.4603    1.9378 H   0  0  0  0  0  0  0  0  0  0  0  0
    2.3973   -1.0939    0.0953 H   0  0  0  0  0  0  0  0  0  0  0  0
    2.5997    0.1615   -1.1292 H   0  0  0  0  0  0  0  0  0  0  0  0
  1  2  1  0
  2  3  1  0
  2  4  1  0
  4  5  1  0
  5  6  1  0
  6  7  1  0
  7  8  1  0
  7  9  1  0
  9 10  1  0
  9 11  1  0
  7  2  1  0
 11  4  1  0
  1 12  1  0
  1 13  1  0
  1 14  1  0
  3 15  1  0
  3 16  1  0
  3 17  1  0
  4 18  1  0
  5 19  1  0
  5 20  1  0
  6 21  1  0
  6 22  1  0
  8 23  1  0
  8 24  1  0
  8 25  1  0
  9 26  1  0
 10 27  1  0
 11 28  1  0
 11 29  1  0
M  END
>  <Energy>  (2) 
55.431044364697456

>  <Real charge>  (2) 
0

>  <Mult>  (2) 
1

$$$$
mol_750 295
     RDKit          3D

 29 30  0  0  0  0  0  0  0  0999 V2000
   -0.5870   -1.6593    1.1816 C   0  0  0  0  0  0  0  0  0  0  0  0
   -0.7216   -0.4766    0.2029 C   0  0  0  0  0  0  0  0  0  0  0  0
   -1.9169   -0.8236   -0.7106 C   0  0  0  0  0  0  0  0  0  0  0  0
   -0.8358    0.9052    0.8953 C   0  0  0  0  0  0  0  0  0  0  0  0
   -0.8370    1.9005   -0.2865 C   0  0  0  0  0  0  0  0  0  0  0  0
    0.1284    1.2443   -1.2890 C   0  0  0  0  0  0  0  0  0  0  0  0
    0.5809   -0.0449   -0.5436 C   0  0  0  0  0  0  0  0  0  0  0  0
    1.1986   -1.0738   -1.4725 C   0  0  0  0  0  0  0  0  0  0  0  0
    1.5185    0.4540    0.5995 C   0  0  0  0  0  0  0  0  0  0  0  0
    2.2690   -0.5820    1.2102 O   0  0  0  0  0  0  0  0  0  0  0  0
    0.5276    1.0645    1.6100 C   0  0  0  0  0  0  0  0  0  0  0  0
   -0.3621   -2.5857    0.6414 H   0  0  0  0  0  0  0  0  0  0  0  0
    0.1830   -1.5397    1.9442 H   0  0  0  0  0  0  0  0  0  0  0  0
   -1.5284   -1.8126    1.7228 H   0  0  0  0  0  0  0  0  0  0  0  0
   -2.8342   -0.9184   -0.1176 H   0  0  0  0  0  0  0  0  0  0  0  0
   -2.1239   -0.0883   -1.4907 H   0  0  0  0  0  0  0  0  0  0  0  0
   -1.7493   -1.7803   -1.2185 H   0  0  0  0  0  0  0  0  0  0  0  0
   -1.6898    1.0301    1.5652 H   0  0  0  0  0  0  0  0  0  0  0  0
   -0.5001    2.9004    0.0066 H   0  0  0  0  0  0  0  0  0  0  0  0
   -1.8367    2.0062   -0.7209 H   0  0  0  0  0  0  0  0  0  0  0  0
    0.9688    1.9054   -1.5284 H   0  0  0  0  0  0  0  0  0  0  0  0
   -0.3813    1.0220   -2.2328 H   0  0  0  0  0  0  0  0  0  0  0  0
    1.4524   -1.9973   -0.9431 H   0  0  0  0  0  0  0  0  0  0  0  0
    2.1163   -0.6844   -1.9264 H   0  0  0  0  0  0  0  0  0  0  0  0
    0.5142   -1.3374   -2.2855 H   0  0  0  0  0  0  0  0  0  0  0  0
    2.2309    1.2102    0.2505 H   0  0  0  0  0  0  0  0  0  0  0  0
    2.9158   -0.9002    0.5581 H   0  0  0  0  0  0  0  0  0  0  0  0
    0.7565    2.1181    1.8047 H   0  0  0  0  0  0  0  0  0  0  0  0
    0.5431    0.5436    2.5730 H   0  0  0  0  0  0  0  0  0  0  0  0
  1  2  1  0
  2  3  1  0
  2  4  1  0
  4  5  1  0
  5  6  1  0
  6  7  1  0
  7  8  1  0
  7  9  1  0
  9 10  1  0
  9 11  1  0
  7  2  1  0
 11  4  1  0
  1 12  1  0
  1 13  1  0
  1 14  1  0
  3 15  1  0
  3 16  1  0
  3 17  1  0
  4 18  1  0
  5 19  1  0
  5 20  1  0
  6 21  1  0
  6 22  1  0
  8 23  1  0
  8 24  1  0
  8 25  1  0
  9 26  1  0
 10 27  1  0
 11 28  1  0
 11 29  1  0
M  END
>  <Energy>  (3) 
55.62529559012564

>  <Real charge>  (3) 
0

>  <Mult>  (3) 
1

$$$$
