mol_76 51
     RDKit          3D

 23 22  0  0  0  0  0  0  0  0999 V2000
   -2.3790    1.0363    0.3440 C   0  0  0  0  0  0  0  0  0  0  0  0
   -1.9058   -0.2783   -0.2778 C   0  0  0  0  0  0  0  0  0  0  0  0
   -2.8294   -1.4183    0.1579 C   0  0  0  0  0  0  0  0  0  0  0  0
   -0.4525   -0.6129    0.0947 C   0  0  0  0  0  0  0  0  0  0  0  0
    0.5645    0.4018   -0.4221 C   0  0  0  0  0  0  0  0  0  0  0  0
    1.8760   -0.0873   -0.1043 O   0  0  0  0  0  0  0  0  0  0  0  0
    2.8889    0.7197   -0.5231 C   0  0  0  0  0  0  0  0  0  0  0  0
    2.7541    1.7781   -1.1203 O   0  0  0  0  0  0  0  0  0  0  0  0
    4.2093    0.1222   -0.1447 C   0  0  0  0  0  0  0  0  0  0  0  0
   -1.8143    1.8879   -0.0472 H   0  0  0  0  0  0  0  0  0  0  0  0
   -3.4351    1.2159    0.1151 H   0  0  0  0  0  0  0  0  0  0  0  0
   -2.2671    1.0232    1.4334 H   0  0  0  0  0  0  0  0  0  0  0  0
   -1.9771   -0.1870   -1.3691 H   0  0  0  0  0  0  0  0  0  0  0  0
   -2.5314   -2.3619   -0.3113 H   0  0  0  0  0  0  0  0  0  0  0  0
   -3.8649   -1.2142   -0.1348 H   0  0  0  0  0  0  0  0  0  0  0  0
   -2.8051   -1.5568    1.2442 H   0  0  0  0  0  0  0  0  0  0  0  0
   -0.3483   -0.7034    1.1840 H   0  0  0  0  0  0  0  0  0  0  0  0
   -0.1900   -1.6015   -0.3052 H   0  0  0  0  0  0  0  0  0  0  0  0
    0.4210    1.3735    0.0621 H   0  0  0  0  0  0  0  0  0  0  0  0
    0.4694    0.5105   -1.5087 H   0  0  0  0  0  0  0  0  0  0  0  0
    5.0151    0.7783   -0.4862 H   0  0  0  0  0  0  0  0  0  0  0  0
    4.2752    0.0265    0.9420 H   0  0  0  0  0  0  0  0  0  0  0  0
    4.3266   -0.8523   -0.6252 H   0  0  0  0  0  0  0  0  0  0  0  0
  1  2  1  0
  2  3  1  0
  2  4  1  0
  4  5  1  0
  5  6  1  0
  6  7  1  0
  7  8  2  0
  7  9  1  0
  1 10  1  0
  1 11  1  0
  1 12  1  0
  2 13  1  0
  3 14  1  0
  3 15  1  0
  3 16  1  0
  4 17  1  0
  4 18  1  0
  5 19  1  0
  5 20  1  0
  9 21  1  0
  9 22  1  0
  9 23  1  0
M  END
>  <Energy>  (1) 
-6.300196913857809

>  <Real charge>  (1) 
0

>  <Mult>  (1) 
1

$$$$
mol_76 215
     RDKit          3D

 23 22  0  0  0  0  0  0  0  0999 V2000
   -1.7424   -1.3585   -0.1362 C   0  0  0  0  0  0  0  0  0  0  0  0
   -1.4510    0.1046    0.1996 C   0  0  0  0  0  0  0  0  0  0  0  0
   -2.7560    0.8250    0.5486 C   0  0  0  0  0  0  0  0  0  0  0  0
   -0.7417    0.8416   -0.9538 C   0  0  0  0  0  0  0  0  0  0  0  0
    0.6201    0.2636   -1.3373 C   0  0  0  0  0  0  0  0  0  0  0  0
    1.4760    0.2704   -0.1885 O   0  0  0  0  0  0  0  0  0  0  0  0
    2.7116   -0.2555   -0.4090 C   0  0  0  0  0  0  0  0  0  0  0  0
    3.1145   -0.7035   -1.4729 O   0  0  0  0  0  0  0  0  0  0  0  0
    3.5200   -0.2075    0.8511 C   0  0  0  0  0  0  0  0  0  0  0  0
   -2.3277   -1.4454   -1.0579 H   0  0  0  0  0  0  0  0  0  0  0  0
   -0.8177   -1.9295   -0.2631 H   0  0  0  0  0  0  0  0  0  0  0  0
   -2.3093   -1.8365    0.6701 H   0  0  0  0  0  0  0  0  0  0  0  0
   -0.8099    0.1305    1.0895 H   0  0  0  0  0  0  0  0  0  0  0  0
   -3.4489    0.8263   -0.2998 H   0  0  0  0  0  0  0  0  0  0  0  0
   -3.2555    0.3385    1.3932 H   0  0  0  0  0  0  0  0  0  0  0  0
   -2.5630    1.8654    0.8310 H   0  0  0  0  0  0  0  0  0  0  0  0
   -0.5943    1.8862   -0.6499 H   0  0  0  0  0  0  0  0  0  0  0  0
   -1.3850    0.8539   -1.8421 H   0  0  0  0  0  0  0  0  0  0  0  0
    0.5135   -0.7568   -1.7215 H   0  0  0  0  0  0  0  0  0  0  0  0
    1.0654    0.8889   -2.1203 H   0  0  0  0  0  0  0  0  0  0  0  0
    3.6448    0.8296    1.1722 H   0  0  0  0  0  0  0  0  0  0  0  0
    3.0277   -0.7955    1.6298 H   0  0  0  0  0  0  0  0  0  0  0  0
    4.5088   -0.6359    0.6638 H   0  0  0  0  0  0  0  0  0  0  0  0
  1  2  1  0
  2  3  1  0
  2  4  1  0
  4  5  1  0
  5  6  1  0
  6  7  1  0
  7  8  2  0
  7  9  1  0
  1 10  1  0
  1 11  1  0
  1 12  1  0
  2 13  1  0
  3 14  1  0
  3 15  1  0
  3 16  1  0
  4 17  1  0
  4 18  1  0
  5 19  1  0
  5 20  1  0
  9 21  1  0
  9 22  1  0
  9 23  1  0
M  END
>  <Energy>  (2) 
-6.124715732570277

>  <Real charge>  (2) 
0

>  <Mult>  (2) 
1

$$$$
mol_76 40
     RDKit          3D

 23 22  0  0  0  0  0  0  0  0999 V2000
   -1.9361    1.5597    0.5646 C   0  0  0  0  0  0  0  0  0  0  0  0
   -1.8713    0.1733   -0.0777 C   0  0  0  0  0  0  0  0  0  0  0  0
   -2.8415   -0.7720    0.6346 C   0  0  0  0  0  0  0  0  0  0  0  0
   -0.4522   -0.4175   -0.0502 C   0  0  0  0  0  0  0  0  0  0  0  0
    0.5604    0.3811   -0.8692 C   0  0  0  0  0  0  0  0  0  0  0  0
    1.8144   -0.3209   -0.9141 O   0  0  0  0  0  0  0  0  0  0  0  0
    2.6616   -0.0847    0.1248 C   0  0  0  0  0  0  0  0  0  0  0  0
    2.4413    0.6553    1.0727 O   0  0  0  0  0  0  0  0  0  0  0  0
    3.9215   -0.8750   -0.0555 C   0  0  0  0  0  0  0  0  0  0  0  0
   -1.3468    2.2886    0.0003 H   0  0  0  0  0  0  0  0  0  0  0  0
   -1.5598    1.5388    1.5929 H   0  0  0  0  0  0  0  0  0  0  0  0
   -2.9675    1.9278    0.5899 H   0  0  0  0  0  0  0  0  0  0  0  0
   -2.1956    0.2627   -1.1222 H   0  0  0  0  0  0  0  0  0  0  0  0
   -3.8650   -0.3846    0.5915 H   0  0  0  0  0  0  0  0  0  0  0  0
   -2.8401   -1.7600    0.1621 H   0  0  0  0  0  0  0  0  0  0  0  0
   -2.5712   -0.8993    1.6885 H   0  0  0  0  0  0  0  0  0  0  0  0
   -0.1003   -0.5051    0.9856 H   0  0  0  0  0  0  0  0  0  0  0  0
   -0.4747   -1.4451   -0.4368 H   0  0  0  0  0  0  0  0  0  0  0  0
    0.7027    1.3969   -0.4849 H   0  0  0  0  0  0  0  0  0  0  0  0
    0.2149    0.4742   -1.9044 H   0  0  0  0  0  0  0  0  0  0  0  0
    4.4154   -0.5788   -0.9843 H   0  0  0  0  0  0  0  0  0  0  0  0
    3.6907   -1.9431   -0.0652 H   0  0  0  0  0  0  0  0  0  0  0  0
    4.5991   -0.6721    0.7788 H   0  0  0  0  0  0  0  0  0  0  0  0
  1  2  1  0
  2  3  1  0
  2  4  1  0
  4  5  1  0
  5  6  1  0
  6  7  1  0
  7  8  2  0
  7  9  1  0
  1 10  1  0
  1 11  1  0
  1 12  1  0
  2 13  1  0
  3 14  1  0
  3 15  1  0
  3 16  1  0
  4 17  1  0
  4 18  1  0
  5 19  1  0
  5 20  1  0
  9 21  1  0
  9 22  1  0
  9 23  1  0
M  END
>  <Energy>  (3) 
-5.966196004523299

>  <Real charge>  (3) 
0

>  <Mult>  (3) 
1

$$$$
mol_76 284
     RDKit          3D

 23 22  0  0  0  0  0  0  0  0999 V2000
   -2.4804    1.4676   -0.5068 C   0  0  0  0  0  0  0  0  0  0  0  0
   -1.7395    0.1284   -0.4919 C   0  0  0  0  0  0  0  0  0  0  0  0
   -2.5809   -0.9191    0.2384 C   0  0  0  0  0  0  0  0  0  0  0  0
   -0.3493    0.3081    0.1396 C   0  0  0  0  0  0  0  0  0  0  0  0
    0.5202   -0.9463    0.0753 C   0  0  0  0  0  0  0  0  0  0  0  0
    1.8201   -0.6674    0.6226 O   0  0  0  0  0  0  0  0  0  0  0  0
    2.7389   -0.1773   -0.2539 C   0  0  0  0  0  0  0  0  0  0  0  0
    2.5464    0.0471   -1.4402 O   0  0  0  0  0  0  0  0  0  0  0  0
    4.0399    0.0584    0.4506 C   0  0  0  0  0  0  0  0  0  0  0  0
   -1.9123    2.2208   -1.0631 H   0  0  0  0  0  0  0  0  0  0  0  0
   -2.6405    1.8450    0.5090 H   0  0  0  0  0  0  0  0  0  0  0  0
   -3.4586    1.3663   -0.9890 H   0  0  0  0  0  0  0  0  0  0  0  0
   -1.6134   -0.1970   -1.5323 H   0  0  0  0  0  0  0  0  0  0  0  0
   -2.1353   -1.9151    0.1576 H   0  0  0  0  0  0  0  0  0  0  0  0
   -3.5862   -0.9787   -0.1926 H   0  0  0  0  0  0  0  0  0  0  0  0
   -2.6833   -0.6755    1.3013 H   0  0  0  0  0  0  0  0  0  0  0  0
    0.1747    1.1296   -0.3656 H   0  0  0  0  0  0  0  0  0  0  0  0
   -0.4432    0.6252    1.1865 H   0  0  0  0  0  0  0  0  0  0  0  0
    0.0928   -1.7426    0.6925 H   0  0  0  0  0  0  0  0  0  0  0  0
    0.5979   -1.3366   -0.9463 H   0  0  0  0  0  0  0  0  0  0  0  0
    4.7745    0.4413   -0.2636 H   0  0  0  0  0  0  0  0  0  0  0  0
    3.9036    0.7996    1.2420 H   0  0  0  0  0  0  0  0  0  0  0  0
    4.4139   -0.8819    0.8633 H   0  0  0  0  0  0  0  0  0  0  0  0
  1  2  1  0
  2  3  1  0
  2  4  1  0
  4  5  1  0
  5  6  1  0
  6  7  1  0
  7  8  2  0
  7  9  1  0
  1 10  1  0
  1 11  1  0
  1 12  1  0
  2 13  1  0
  3 14  1  0
  3 15  1  0
  3 16  1  0
  4 17  1  0
  4 18  1  0
  5 19  1  0
  5 20  1  0
  9 21  1  0
  9 22  1  0
  9 23  1  0
M  END
>  <Energy>  (4) 
-5.893291720203714

>  <Real charge>  (4) 
0

>  <Mult>  (4) 
1

$$$$
mol_76 59
     RDKit          3D

 23 22  0  0  0  0  0  0  0  0999 V2000
   -2.2332    1.4186   -0.9299 C   0  0  0  0  0  0  0  0  0  0  0  0
   -2.0369    0.5288    0.2974 C   0  0  0  0  0  0  0  0  0  0  0  0
   -2.5203   -0.8925    0.0096 C   0  0  0  0  0  0  0  0  0  0  0  0
   -0.5890    0.5595    0.8153 C   0  0  0  0  0  0  0  0  0  0  0  0
    0.4688    0.0344   -0.1532 C   0  0  0  0  0  0  0  0  0  0  0  0
    1.7463    0.1392    0.4950 O   0  0  0  0  0  0  0  0  0  0  0  0
    2.7923   -0.2971   -0.2586 C   0  0  0  0  0  0  0  0  0  0  0  0
    2.7125   -0.7481   -1.3923 O   0  0  0  0  0  0  0  0  0  0  0  0
    4.0719   -0.1456    0.5051 C   0  0  0  0  0  0  0  0  0  0  0  0
   -3.2951    1.4819   -1.1915 H   0  0  0  0  0  0  0  0  0  0  0  0
   -1.7007    1.0303   -1.8039 H   0  0  0  0  0  0  0  0  0  0  0  0
   -1.8770    2.4355   -0.7352 H   0  0  0  0  0  0  0  0  0  0  0  0
   -2.6695    0.9331    1.0987 H   0  0  0  0  0  0  0  0  0  0  0  0
   -2.3707   -1.5390    0.8806 H   0  0  0  0  0  0  0  0  0  0  0  0
   -3.5901   -0.8931   -0.2259 H   0  0  0  0  0  0  0  0  0  0  0  0
   -1.9948   -1.3370   -0.8415 H   0  0  0  0  0  0  0  0  0  0  0  0
   -0.5268   -0.0148    1.7493 H   0  0  0  0  0  0  0  0  0  0  0  0
   -0.3277    1.5881    1.0976 H   0  0  0  0  0  0  0  0  0  0  0  0
    0.2796   -1.0159   -0.3990 H   0  0  0  0  0  0  0  0  0  0  0  0
    0.4845    0.6336   -1.0696 H   0  0  0  0  0  0  0  0  0  0  0  0
    4.9048   -0.4990   -0.1096 H   0  0  0  0  0  0  0  0  0  0  0  0
    4.2382    0.9077    0.7445 H   0  0  0  0  0  0  0  0  0  0  0  0
    4.0327   -0.7466    1.4170 H   0  0  0  0  0  0  0  0  0  0  0  0
  1  2  1  0
  2  3  1  0
  2  4  1  0
  4  5  1  0
  5  6  1  0
  6  7  1  0
  7  8  2  0
  7  9  1  0
  1 10  1  0
  1 11  1  0
  1 12  1  0
  2 13  1  0
  3 14  1  0
  3 15  1  0
  3 16  1  0
  4 17  1  0
  4 18  1  0
  5 19  1  0
  5 20  1  0
  9 21  1  0
  9 22  1  0
  9 23  1  0
M  END
>  <Energy>  (5) 
-5.828376246126822

>  <Real charge>  (5) 
0

>  <Mult>  (5) 
1

$$$$
mol_76 185
     RDKit          3D

 23 22  0  0  0  0  0  0  0  0999 V2000
   -2.3300    1.3559   -0.0164 C   0  0  0  0  0  0  0  0  0  0  0  0
   -1.2949    0.2646    0.2689 C   0  0  0  0  0  0  0  0  0  0  0  0
   -1.9712   -0.9218    0.9568 C   0  0  0  0  0  0  0  0  0  0  0  0
   -0.5906   -0.1407   -1.0407 C   0  0  0  0  0  0  0  0  0  0  0  0
    0.5294   -1.1685   -0.8710 C   0  0  0  0  0  0  0  0  0  0  0  0
    1.4882   -0.7406    0.1072 O   0  0  0  0  0  0  0  0  0  0  0  0
    2.4664    0.0899   -0.3461 C   0  0  0  0  0  0  0  0  0  0  0  0
    2.5895    0.4899   -1.4947 O   0  0  0  0  0  0  0  0  0  0  0  0
    3.3844    0.4564    0.7796 C   0  0  0  0  0  0  0  0  0  0  0  0
   -2.8143    1.6847    0.9092 H   0  0  0  0  0  0  0  0  0  0  0  0
   -3.1091    0.9970   -0.6976 H   0  0  0  0  0  0  0  0  0  0  0  0
   -1.8566    2.2316   -0.4731 H   0  0  0  0  0  0  0  0  0  0  0  0
   -0.5531    0.6844    0.9597 H   0  0  0  0  0  0  0  0  0  0  0  0
   -2.6811   -1.4176    0.2863 H   0  0  0  0  0  0  0  0  0  0  0  0
   -2.5197   -0.5936    1.8464 H   0  0  0  0  0  0  0  0  0  0  0  0
   -1.2365   -1.6630    1.2854 H   0  0  0  0  0  0  0  0  0  0  0  0
   -0.1655    0.7646   -1.4922 H   0  0  0  0  0  0  0  0  0  0  0  0
   -1.3246   -0.5339   -1.7549 H   0  0  0  0  0  0  0  0  0  0  0  0
    1.0176   -1.3717   -1.8319 H   0  0  0  0  0  0  0  0  0  0  0  0
    0.1236   -2.1255   -0.5277 H   0  0  0  0  0  0  0  0  0  0  0  0
    3.8512   -0.4443    1.1859 H   0  0  0  0  0  0  0  0  0  0  0  0
    4.1713    1.1174    0.4050 H   0  0  0  0  0  0  0  0  0  0  0  0
    2.8255    0.9848    1.5560 H   0  0  0  0  0  0  0  0  0  0  0  0
  1  2  1  0
  2  3  1  0
  2  4  1  0
  4  5  1  0
  5  6  1  0
  6  7  1  0
  7  8  2  0
  7  9  1  0
  1 10  1  0
  1 11  1  0
  1 12  1  0
  2 13  1  0
  3 14  1  0
  3 15  1  0
  3 16  1  0
  4 17  1  0
  4 18  1  0
  5 19  1  0
  5 20  1  0
  9 21  1  0
  9 22  1  0
  9 23  1  0
M  END
>  <Energy>  (6) 
-5.815542957959886

>  <Real charge>  (6) 
0

>  <Mult>  (6) 
1

$$$$
mol_76 160
     RDKit          3D

 23 22  0  0  0  0  0  0  0  0999 V2000
   -2.4713    1.3684    0.3261 C   0  0  0  0  0  0  0  0  0  0  0  0
   -1.7473    0.1689    0.9370 C   0  0  0  0  0  0  0  0  0  0  0  0
   -2.2627   -1.1346    0.3271 C   0  0  0  0  0  0  0  0  0  0  0  0
   -0.2177    0.2944    0.8353 C   0  0  0  0  0  0  0  0  0  0  0  0
    0.3438    0.3562   -0.5847 C   0  0  0  0  0  0  0  0  0  0  0  0
    1.7744    0.5001   -0.5345 O   0  0  0  0  0  0  0  0  0  0  0  0
    2.4835   -0.6594   -0.4595 C   0  0  0  0  0  0  0  0  0  0  0  0
    2.0097   -1.7859   -0.4243 O   0  0  0  0  0  0  0  0  0  0  0  0
    3.9504   -0.3578   -0.4199 C   0  0  0  0  0  0  0  0  0  0  0  0
   -2.3476    1.4085   -0.7608 H   0  0  0  0  0  0  0  0  0  0  0  0
   -2.0969    2.3065    0.7488 H   0  0  0  0  0  0  0  0  0  0  0  0
   -3.5455    1.3144    0.5343 H   0  0  0  0  0  0  0  0  0  0  0  0
   -1.9938    0.1487    2.0069 H   0  0  0  0  0  0  0  0  0  0  0  0
   -3.3310   -1.2589    0.5351 H   0  0  0  0  0  0  0  0  0  0  0  0
   -2.1336   -1.1552   -0.7596 H   0  0  0  0  0  0  0  0  0  0  0  0
   -1.7383   -1.9974    0.7509 H   0  0  0  0  0  0  0  0  0  0  0  0
    0.1088    1.1906    1.3794 H   0  0  0  0  0  0  0  0  0  0  0  0
    0.2455   -0.5447    1.3703 H   0  0  0  0  0  0  0  0  0  0  0  0
   -0.0348    1.2392   -1.1087 H   0  0  0  0  0  0  0  0  0  0  0  0
    0.0653   -0.5177   -1.1833 H   0  0  0  0  0  0  0  0  0  0  0  0
    4.2441    0.1753   -1.3276 H   0  0  0  0  0  0  0  0  0  0  0  0
    4.5119   -1.2952   -0.3700 H   0  0  0  0  0  0  0  0  0  0  0  0
    4.1829    0.2355    0.4679 H   0  0  0  0  0  0  0  0  0  0  0  0
  1  2  1  0
  2  3  1  0
  2  4  1  0
  4  5  1  0
  5  6  1  0
  6  7  1  0
  7  8  2  0
  7  9  1  0
  1 10  1  0
  1 11  1  0
  1 12  1  0
  2 13  1  0
  3 14  1  0
  3 15  1  0
  3 16  1  0
  4 17  1  0
  4 18  1  0
  5 19  1  0
  5 20  1  0
  9 21  1  0
  9 22  1  0
  9 23  1  0
M  END
>  <Energy>  (7) 
-5.4729950067678645

>  <Real charge>  (7) 
0

>  <Mult>  (7) 
1

$$$$
