mol_2 202
     RDKit          3D

 26 27  0  0  0  0  0  0  0  0999 V2000
    3.6614   -1.5151    0.7400 C   0  0  0  0  0  0  0  0  0  0  0  0
    3.2319   -0.2070    0.1951 C   0  0  0  0  0  0  0  0  0  0  0  0
    4.2333    0.6519   -0.1421 O   0  0  0  0  0  0  0  0  0  0  0  0
    3.6510    1.7777   -0.6152 C   0  0  0  0  0  0  0  0  0  0  0  0
    2.2821    1.6567   -0.5875 C   0  0  0  0  0  0  0  0  0  0  0  0
    1.9891    0.3601   -0.0577 C   0  0  0  0  0  0  0  0  0  0  0  0
    0.7092   -0.3093    0.1969 C   0  0  0  0  0  0  0  0  0  0  0  0
    0.6766   -1.4496    0.6451 O   0  0  0  0  0  0  0  0  0  0  0  0
   -0.3985    0.4608   -0.1117 N   0  0  0  0  0  0  0  0  0  0  0  0
   -1.7595    0.1092    0.0149 C   0  0  0  0  0  0  0  0  0  0  0  0
   -2.7038    1.0744   -0.3628 C   0  0  0  0  0  0  0  0  0  0  0  0
   -4.0731    0.8105   -0.2705 C   0  0  0  0  0  0  0  0  0  0  0  0
   -4.5132   -0.4226    0.2009 C   0  0  0  0  0  0  0  0  0  0  0  0
   -3.5838   -1.3883    0.5785 C   0  0  0  0  0  0  0  0  0  0  0  0
   -2.2129   -1.1242    0.4860 C   0  0  0  0  0  0  0  0  0  0  0  0
    3.3038   -2.3311    0.1048 H   0  0  0  0  0  0  0  0  0  0  0  0
    3.2657   -1.6584    1.7501 H   0  0  0  0  0  0  0  0  0  0  0  0
    4.7526   -1.5841    0.7936 H   0  0  0  0  0  0  0  0  0  0  0  0
    4.3298    2.5596   -0.9270 H   0  0  0  0  0  0  0  0  0  0  0  0
    1.5950    2.4223   -0.9159 H   0  0  0  0  0  0  0  0  0  0  0  0
   -0.2250    1.3879   -0.4669 H   0  0  0  0  0  0  0  0  0  0  0  0
   -2.3903    2.0462   -0.7346 H   0  0  0  0  0  0  0  0  0  0  0  0
   -4.7947    1.5676   -0.5664 H   0  0  0  0  0  0  0  0  0  0  0  0
   -5.5770   -0.6324    0.2746 H   0  0  0  0  0  0  0  0  0  0  0  0
   -3.9213   -2.3538    0.9475 H   0  0  0  0  0  0  0  0  0  0  0  0
   -1.5286   -1.9090    0.7920 H   0  0  0  0  0  0  0  0  0  0  0  0
  1  2  1  0
  2  3  1  0
  3  4  1  0
  4  5  2  0
  5  6  1  0
  6  7  1  0
  7  8  2  0
  7  9  1  0
  9 10  1  0
 10 11  2  0
 11 12  1  0
 12 13  2  0
 13 14  1  0
 14 15  2  0
  6  2  2  0
 15 10  1  0
  1 16  1  0
  1 17  1  0
  1 18  1  0
  4 19  1  0
  5 20  1  0
  9 21  1  0
 11 22  1  0
 12 23  1  0
 13 24  1  0
 14 25  1  0
 15 26  1  0
M  END
>  <Energy>  (1) 
4.546280034323442

>  <Real charge>  (1) 
0

>  <Mult>  (1) 
1

$$$$
