mol_510 13
     RDKit          3D

 12 12  0  0  0  0  0  0  0  0999 V2000
    3.1106   -0.0142   -0.0545 Cl  0  0  0  0  0  0  0  0  0  0  0  0
    1.3908   -0.0064   -0.0244 C   0  0  0  0  0  0  0  0  0  0  0  0
    0.6919   -1.2128   -0.0706 C   0  0  0  0  0  0  0  0  0  0  0  0
   -0.7050   -1.2064   -0.0461 C   0  0  0  0  0  0  0  0  0  0  0  0
   -1.3908    0.0064    0.0244 C   0  0  0  0  0  0  0  0  0  0  0  0
   -3.1106    0.0142    0.0545 Cl  0  0  0  0  0  0  0  0  0  0  0  0
   -0.6919    1.2128    0.0706 C   0  0  0  0  0  0  0  0  0  0  0  0
    0.7050    1.2064    0.0461 C   0  0  0  0  0  0  0  0  0  0  0  0
    1.2264   -2.1576   -0.1255 H   0  0  0  0  0  0  0  0  0  0  0  0
   -1.2498   -2.1463   -0.0821 H   0  0  0  0  0  0  0  0  0  0  0  0
   -1.2264    2.1576    0.1255 H   0  0  0  0  0  0  0  0  0  0  0  0
    1.2498    2.1463    0.0821 H   0  0  0  0  0  0  0  0  0  0  0  0
  1  2  1  0
  2  3  2  0
  3  4  1  0
  4  5  2  0
  5  6  1  0
  5  7  1  0
  7  8  2  0
  8  2  1  0
  3  9  1  0
  4 10  1  0
  7 11  1  0
  8 12  1  0
M  END
>  <Energy>  (1) 
13.211687408154981

>  <Real charge>  (1) 
0

>  <Mult>  (1) 
1

$$$$
