mol_700 10
     RDKit          3D

 16 16  0  0  0  0  0  0  0  0999 V2000
   -2.3890   -2.2643   -0.1239 O   0  0  0  0  0  1  0  0  0  0  0  0
   -2.4546   -1.0437    0.0738 N   0  0  0  0  0  4  0  0  0  0  0  0
   -3.5038   -0.4166    0.2735 O   0  0  0  0  0  0  0  0  0  0  0  0
   -1.1961   -0.2852    0.0709 C   0  0  0  0  0  0  0  0  0  0  0  0
   -1.2238    1.1007    0.2908 C   0  0  0  0  0  0  0  0  0  0  0  0
   -0.0311    1.8273    0.2893 C   0  0  0  0  0  0  0  0  0  0  0  0
    1.1850    1.1767    0.0698 C   0  0  0  0  0  0  0  0  0  0  0  0
    1.2045   -0.2095   -0.1493 C   0  0  0  0  0  0  0  0  0  0  0  0
    0.0162   -0.9527   -0.1509 C   0  0  0  0  0  0  0  0  0  0  0  0
    2.4874   -0.8879   -0.3796 N   0  0  0  0  0  4  0  0  0  0  0  0
    3.5142   -0.1953   -0.3703 O   0  0  0  0  0  1  0  0  0  0  0  0
    2.4634   -2.1113   -0.5690 O   0  0  0  0  0  0  0  0  0  0  0  0
   -2.1621    1.6264    0.4639 H   0  0  0  0  0  0  0  0  0  0  0  0
   -0.0494    2.9027    0.4596 H   0  0  0  0  0  0  0  0  0  0  0  0
    2.1045    1.7609    0.0725 H   0  0  0  0  0  0  0  0  0  0  0  0
    0.0345   -2.0282   -0.3212 H   0  0  0  0  0  0  0  0  0  0  0  0
  1  2  1  0
  2  3  2  0
  2  4  1  0
  4  5  2  0
  5  6  1  0
  6  7  2  0
  7  8  1  0
  8  9  2  0
  8 10  1  0
 10 11  1  0
 10 12  2  0
  9  4  1  0
  5 13  1  0
  6 14  1  0
  7 15  1  0
  9 16  1  0
M  CHG  4   1  -1   2   1  10   1  11  -1
M  END
>  <Energy>  (1) 
69.75330353781317

>  <Real charge>  (1) 
0

>  <Mult>  (1) 
1

$$$$
