mol_810 87
     RDKit          3D

 31 33  0  0  0  0  0  0  0  0999 V2000
    0.9113    1.0986   -1.6015 O   0  0  0  0  0  0  0  0  0  0  0  0
   -0.1360    1.5010   -0.8104 C   0  0  0  0  0  0  0  0  0  0  0  0
   -0.2566    2.8878   -0.6389 C   0  0  0  0  0  0  0  0  0  0  0  0
   -1.3274    3.4154    0.0729 C   0  0  0  0  0  0  0  0  0  0  0  0
   -2.2863    2.5569    0.5946 C   0  0  0  0  0  0  0  0  0  0  0  0
   -2.1731    1.1741    0.4015 C   0  0  0  0  0  0  0  0  0  0  0  0
   -1.0916    0.6103   -0.3005 C   0  0  0  0  0  0  0  0  0  0  0  0
   -1.0209   -0.8059   -0.5185 N   0  0  0  0  0  0  0  0  0  0  0  0
   -2.2668   -1.5832   -0.5348 C   0  0  0  0  0  0  0  0  0  0  0  0
   -2.5282   -2.3057    0.7815 C   0  0  0  0  0  0  0  0  0  0  0  0
    0.1577   -1.5504   -0.7007 C   0  0  0  0  0  0  0  0  0  0  0  0
    0.1405   -2.7599   -0.9485 O   0  0  0  0  0  0  0  0  0  0  0  0
    1.4905   -0.9503   -0.4846 C   0  0  0  0  0  0  0  0  0  0  0  0
    2.4810   -1.7283    0.1356 C   0  0  0  0  0  0  0  0  0  0  0  0
    3.7723   -1.2249    0.3089 C   0  0  0  0  0  0  0  0  0  0  0  0
    4.0879    0.0513   -0.1534 C   0  0  0  0  0  0  0  0  0  0  0  0
    3.1122    0.8213   -0.7858 C   0  0  0  0  0  0  0  0  0  0  0  0
    1.8155    0.3206   -0.9367 C   0  0  0  0  0  0  0  0  0  0  0  0
    0.4870    3.5528   -1.0703 H   0  0  0  0  0  0  0  0  0  0  0  0
   -1.4176    4.4894    0.2115 H   0  0  0  0  0  0  0  0  0  0  0  0
   -3.1299    2.9580    1.1513 H   0  0  0  0  0  0  0  0  0  0  0  0
   -2.9478    0.5528    0.8403 H   0  0  0  0  0  0  0  0  0  0  0  0
   -3.1159   -0.9467   -0.8074 H   0  0  0  0  0  0  0  0  0  0  0  0
   -2.2003   -2.3304   -1.3359 H   0  0  0  0  0  0  0  0  0  0  0  0
   -1.7318   -3.0218    1.0076 H   0  0  0  0  0  0  0  0  0  0  0  0
   -2.5885   -1.6070    1.6211 H   0  0  0  0  0  0  0  0  0  0  0  0
   -3.4719   -2.8573    0.7275 H   0  0  0  0  0  0  0  0  0  0  0  0
    2.2472   -2.7352    0.4767 H   0  0  0  0  0  0  0  0  0  0  0  0
    4.5322   -1.8348    0.7913 H   0  0  0  0  0  0  0  0  0  0  0  0
    5.0953    0.4414   -0.0312 H   0  0  0  0  0  0  0  0  0  0  0  0
    3.3600    1.8102   -1.1620 H   0  0  0  0  0  0  0  0  0  0  0  0
  1  2  1  0
  2  3  2  0
  3  4  1  0
  4  5  2  0
  5  6  1  0
  6  7  2  0
  7  8  1  0
  8  9  1  0
  9 10  1  0
  8 11  1  0
 11 12  2  0
 11 13  1  0
 13 14  2  0
 14 15  1  0
 15 16  2  0
 16 17  1  0
 17 18  2  0
  7  2  1  0
 18  1  1  0
 18 13  1  0
  3 19  1  0
  4 20  1  0
  5 21  1  0
  6 22  1  0
  9 23  1  0
  9 24  1  0
 10 25  1  0
 10 26  1  0
 10 27  1  0
 14 28  1  0
 15 29  1  0
 16 30  1  0
 17 31  1  0
M  END
>  <Energy>  (1) 
70.13176906311858

>  <Real charge>  (1) 
0

>  <Mult>  (1) 
1

$$$$
