mol_545 73
     RDKit          3D

 19 19  0  0  0  0  0  0  0  0999 V2000
    2.7807   -0.5801    0.0988 C   0  0  0  0  0  0  0  0  0  0  0  0
    1.3763   -0.0553    0.0445 C   0  0  0  0  0  0  0  0  0  0  0  0
    1.1255    1.3148    0.1797 C   0  0  0  0  0  0  0  0  0  0  0  0
   -0.1834    1.7989    0.1610 C   0  0  0  0  0  0  0  0  0  0  0  0
   -1.2464    0.9095    0.0170 C   0  0  0  0  0  0  0  0  0  0  0  0
   -2.5328    1.3711   -0.0017 O   0  0  0  0  0  0  0  0  0  0  0  0
   -1.0253   -0.4648   -0.1062 C   0  0  0  0  0  0  0  0  0  0  0  0
   -2.1738   -1.4200   -0.2515 C   0  0  0  0  0  0  0  0  0  0  0  0
    0.2948   -0.9384   -0.0850 C   0  0  0  0  0  0  0  0  0  0  0  0
    3.0508   -0.8196    1.1318 H   0  0  0  0  0  0  0  0  0  0  0  0
    3.4895    0.1585   -0.2902 H   0  0  0  0  0  0  0  0  0  0  0  0
    2.8841   -1.4823   -0.5133 H   0  0  0  0  0  0  0  0  0  0  0  0
    1.9501    2.0138    0.3000 H   0  0  0  0  0  0  0  0  0  0  0  0
   -0.3526    2.8661    0.2628 H   0  0  0  0  0  0  0  0  0  0  0  0
   -2.5158    2.3371    0.0913 H   0  0  0  0  0  0  0  0  0  0  0  0
   -2.8203   -1.3721    0.6306 H   0  0  0  0  0  0  0  0  0  0  0  0
   -1.8262   -2.4534   -0.3542 H   0  0  0  0  0  0  0  0  0  0  0  0
   -2.7590   -1.1772   -1.1444 H   0  0  0  0  0  0  0  0  0  0  0  0
    0.4837   -2.0068   -0.1711 H   0  0  0  0  0  0  0  0  0  0  0  0
  1  2  1  0
  2  3  2  0
  3  4  1  0
  4  5  2  0
  5  6  1  0
  5  7  1  0
  7  8  1  0
  7  9  2  0
  9  2  1  0
  1 10  1  0
  1 11  1  0
  1 12  1  0
  3 13  1  0
  4 14  1  0
  6 15  1  0
  8 16  1  0
  8 17  1  0
  8 18  1  0
  9 19  1  0
M  END
>  <Energy>  (1) 
11.480537311655796

>  <Real charge>  (1) 
0

>  <Mult>  (1) 
1

$$$$
mol_545 4
     RDKit          3D

 19 19  0  0  0  0  0  0  0  0999 V2000
    2.7545   -0.7476    0.0582 C   0  0  0  0  0  0  0  0  0  0  0  0
    1.4016   -0.1084   -0.0487 C   0  0  0  0  0  0  0  0  0  0  0  0
    1.2840    1.2638   -0.2887 C   0  0  0  0  0  0  0  0  0  0  0  0
    0.0249    1.8586   -0.3561 C   0  0  0  0  0  0  0  0  0  0  0  0
   -1.1219    1.0897   -0.1739 C   0  0  0  0  0  0  0  0  0  0  0  0
   -2.3112    1.7572   -0.2572 O   0  0  0  0  0  0  0  0  0  0  0  0
   -1.0362   -0.2831    0.0826 C   0  0  0  0  0  0  0  0  0  0  0  0
   -2.2509   -1.1393    0.2917 C   0  0  0  0  0  0  0  0  0  0  0  0
    0.2394   -0.8692    0.1476 C   0  0  0  0  0  0  0  0  0  0  0  0
    2.7228   -1.7873   -0.2839 H   0  0  0  0  0  0  0  0  0  0  0  0
    3.0970   -0.7265    1.0974 H   0  0  0  0  0  0  0  0  0  0  0  0
    3.4856   -0.2231   -0.5660 H   0  0  0  0  0  0  0  0  0  0  0  0
    2.1700    1.8788   -0.4257 H   0  0  0  0  0  0  0  0  0  0  0  0
   -0.0636    2.9243   -0.5482 H   0  0  0  0  0  0  0  0  0  0  0  0
   -3.0386    1.1318   -0.1203 H   0  0  0  0  0  0  0  0  0  0  0  0
   -2.8873   -1.1177   -0.5988 H   0  0  0  0  0  0  0  0  0  0  0  0
   -1.9824   -2.1841    0.4803 H   0  0  0  0  0  0  0  0  0  0  0  0
   -2.8206   -0.7836    1.1563 H   0  0  0  0  0  0  0  0  0  0  0  0
    0.3329   -1.9343    0.3534 H   0  0  0  0  0  0  0  0  0  0  0  0
  1  2  1  0
  2  3  2  0
  3  4  1  0
  4  5  2  0
  5  6  1  0
  5  7  1  0
  7  8  1  0
  7  9  2  0
  9  2  1  0
  1 10  1  0
  1 11  1  0
  1 12  1  0
  3 13  1  0
  4 14  1  0
  6 15  1  0
  8 16  1  0
  8 17  1  0
  8 18  1  0
  9 19  1  0
M  END
>  <Energy>  (2) 
11.883078796883025

>  <Real charge>  (2) 
0

>  <Mult>  (2) 
1

$$$$
