mol_715 10
     RDKit          3D

 12 12  0  0  0  0  0  0  0  0999 V2000
    3.1287   -0.7418   -0.0026 Br  0  0  0  0  0  0  0  0  0  0  0  0
    1.2890   -0.3056   -0.0011 C   0  0  0  0  0  0  0  0  0  0  0  0
    0.8951    1.0309   -0.0536 C   0  0  0  0  0  0  0  0  0  0  0  0
   -0.4633    1.3512   -0.0524 C   0  0  0  0  0  0  0  0  0  0  0  0
   -1.4199    0.3366    0.0012 C   0  0  0  0  0  0  0  0  0  0  0  0
   -1.0205   -0.9994    0.0537 C   0  0  0  0  0  0  0  0  0  0  0  0
    0.3371   -1.3230    0.0526 C   0  0  0  0  0  0  0  0  0  0  0  0
    1.6342    1.8262   -0.0955 H   0  0  0  0  0  0  0  0  0  0  0  0
   -0.7761    2.3915   -0.0933 H   0  0  0  0  0  0  0  0  0  0  0  0
   -2.4779    0.5875    0.0021 H   0  0  0  0  0  0  0  0  0  0  0  0
   -1.7670   -1.7885    0.0954 H   0  0  0  0  0  0  0  0  0  0  0  0
    0.6406   -2.3655    0.0936 H   0  0  0  0  0  0  0  0  0  0  0  0
  1  2  1  0
  2  3  2  0
  3  4  1  0
  4  5  2  0
  5  6  1  0
  6  7  2  0
  7  2  1  0
  3  8  1  0
  4  9  1  0
  5 10  1  0
  6 11  1  0
  7 12  1  0
M  END
>  <Energy>  (1) 
15.836966937465958

>  <Real charge>  (1) 
0

>  <Mult>  (1) 
1

$$$$
