mol_357 110
     RDKit          3D

 11 10  0  0  0  0  0  0  0  0999 V2000
   -1.7472   -0.1915    0.0694 C   0  0  0  0  0  0  0  0  0  0  0  0
   -0.3102    0.0138    0.4256 C   0  0  0  0  0  0  0  0  0  0  0  0
    0.6790    0.0222   -0.4785 C   0  0  0  0  0  0  0  0  0  0  0  0
    2.0797    0.2306   -0.0605 C   0  0  0  0  0  0  0  0  0  0  0  0
    2.9927    0.2405   -0.8764 O   0  0  0  0  0  0  0  0  0  0  0  0
   -1.8911   -0.3324   -1.0066 H   0  0  0  0  0  0  0  0  0  0  0  0
   -2.1359   -1.0753    0.5845 H   0  0  0  0  0  0  0  0  0  0  0  0
   -2.3360    0.6762    0.3819 H   0  0  0  0  0  0  0  0  0  0  0  0
   -0.0980    0.1603    1.4824 H   0  0  0  0  0  0  0  0  0  0  0  0
    0.5137   -0.1195   -1.5404 H   0  0  0  0  0  0  0  0  0  0  0  0
    2.2532    0.3752    1.0186 H   0  0  0  0  0  0  0  0  0  0  0  0
  1  2  1  0
  2  3  2  0
  3  4  1  0
  4  5  2  0
  1  6  1  0
  1  7  1  0
  1  8  1  0
  2  9  1  0
  3 10  1  0
  4 11  1  0
M  END
>  <Energy>  (1) 
7.461549308599766

>  <Real charge>  (1) 
0

>  <Mult>  (1) 
1

$$$$
