mol_3 206
     RDKit          3D

 27 26  0  0  0  0  0  0  0  0999 V2000
    2.5685   -1.0029   -1.5943 C   0  0  0  0  0  0  0  0  0  0  0  0
    2.0092   -0.1245   -0.5053 C   0  0  0  0  0  0  0  0  0  0  0  0
    2.8400   -0.0859    0.7475 C   0  0  0  0  0  0  0  0  0  0  0  0
    0.8502    0.5383   -0.6852 C   0  0  0  0  0  0  0  0  0  0  0  0
    0.1669    1.4669    0.2829 C   0  0  0  0  0  0  0  0  0  0  0  0
   -0.9024    0.7693    1.1354 C   0  0  0  0  0  0  0  0  0  0  0  0
   -2.0808    0.2329    0.3446 C   0  0  0  0  0  0  0  0  0  0  0  0
   -3.1097    1.2665   -0.0400 C   0  0  0  0  0  0  0  0  0  0  0  0
   -2.2706   -1.0560    0.0025 C   0  0  0  0  0  0  0  0  0  0  0  0
   -1.3423   -2.1730    0.2872 C   0  0  0  0  0  0  0  0  0  0  0  0
   -1.6225   -3.3224   -0.0343 O   0  0  0  0  0  0  0  0  0  0  0  0
    1.9407   -1.0038   -2.4916 H   0  0  0  0  0  0  0  0  0  0  0  0
    3.5650   -0.6556   -1.8862 H   0  0  0  0  0  0  0  0  0  0  0  0
    2.6482   -2.0372   -1.2437 H   0  0  0  0  0  0  0  0  0  0  0  0
    2.3660    0.4647    1.5635 H   0  0  0  0  0  0  0  0  0  0  0  0
    3.8082    0.3824    0.5430 H   0  0  0  0  0  0  0  0  0  0  0  0
    3.0186   -1.1035    1.1113 H   0  0  0  0  0  0  0  0  0  0  0  0
    0.3266    0.4203   -1.6345 H   0  0  0  0  0  0  0  0  0  0  0  0
    0.8985    1.9416    0.9460 H   0  0  0  0  0  0  0  0  0  0  0  0
   -0.2795    2.2910   -0.2873 H   0  0  0  0  0  0  0  0  0  0  0  0
   -1.2827    1.4887    1.8729 H   0  0  0  0  0  0  0  0  0  0  0  0
   -0.4356   -0.0189    1.7364 H   0  0  0  0  0  0  0  0  0  0  0  0
   -2.6646    2.0295   -0.6860 H   0  0  0  0  0  0  0  0  0  0  0  0
   -3.5092    1.7559    0.8543 H   0  0  0  0  0  0  0  0  0  0  0  0
   -3.9552    0.8288   -0.5816 H   0  0  0  0  0  0  0  0  0  0  0  0
   -3.1547   -1.3658   -0.5483 H   0  0  0  0  0  0  0  0  0  0  0  0
   -0.3968   -1.9274    0.7909 H   0  0  0  0  0  0  0  0  0  0  0  0
  1  2  1  0
  2  3  1  0
  2  4  2  3
  4  5  1  0
  5  6  1  0
  6  7  1  0
  7  8  1  0
  7  9  2  3
  9 10  1  0
 10 11  2  0
  1 12  1  0
  1 13  1  0
  1 14  1  0
  3 15  1  0
  3 16  1  0
  3 17  1  0
  4 18  1  0
  5 19  1  0
  5 20  1  0
  6 21  1  0
  6 22  1  0
  8 23  1  0
  8 24  1  0
  8 25  1  0
  9 26  1  0
 10 27  1  0
M  END
>  <Energy>  (1) 
25.346191728374134

>  <Real charge>  (1) 
0

>  <Mult>  (1) 
1

$$$$
mol_3 190
     RDKit          3D

 27 26  0  0  0  0  0  0  0  0999 V2000
   -2.3135   -1.2215   -1.7486 C   0  0  0  0  0  0  0  0  0  0  0  0
   -1.7076   -0.5896   -0.5218 C   0  0  0  0  0  0  0  0  0  0  0  0
   -2.0990    0.8474   -0.3141 C   0  0  0  0  0  0  0  0  0  0  0  0
   -0.8810   -1.2944    0.2752 C   0  0  0  0  0  0  0  0  0  0  0  0
   -0.1980   -0.8369    1.5367 C   0  0  0  0  0  0  0  0  0  0  0  0
    1.3041   -0.5833    1.3410 C   0  0  0  0  0  0  0  0  0  0  0  0
    1.6193    0.6928    0.5833 C   0  0  0  0  0  0  0  0  0  0  0  0
    1.5874    1.9487    1.4183 C   0  0  0  0  0  0  0  0  0  0  0  0
    1.9356    0.7717   -0.7234 C   0  0  0  0  0  0  0  0  0  0  0  0
    1.9851   -0.3633   -1.6706 C   0  0  0  0  0  0  0  0  0  0  0  0
    2.3233   -0.1984   -2.8373 O   0  0  0  0  0  0  0  0  0  0  0  0
   -2.0091   -2.2662   -1.8721 H   0  0  0  0  0  0  0  0  0  0  0  0
   -2.0044   -0.6773   -2.6470 H   0  0  0  0  0  0  0  0  0  0  0  0
   -3.4063   -1.1990   -1.6856 H   0  0  0  0  0  0  0  0  0  0  0  0
   -3.1805    0.9239   -0.1612 H   0  0  0  0  0  0  0  0  0  0  0  0
   -1.8328    1.4399   -1.1961 H   0  0  0  0  0  0  0  0  0  0  0  0
   -1.6105    1.3130    0.5440 H   0  0  0  0  0  0  0  0  0  0  0  0
   -0.6686   -2.3303    0.0087 H   0  0  0  0  0  0  0  0  0  0  0  0
   -0.3190   -1.6374    2.2781 H   0  0  0  0  0  0  0  0  0  0  0  0
   -0.6864    0.0381    1.9757 H   0  0  0  0  0  0  0  0  0  0  0  0
    1.7733   -1.4533    0.8676 H   0  0  0  0  0  0  0  0  0  0  0  0
    1.7772   -0.5188    2.3301 H   0  0  0  0  0  0  0  0  0  0  0  0
    1.8320    2.8422    0.8338 H   0  0  0  0  0  0  0  0  0  0  0  0
    0.5927    2.0998    1.8486 H   0  0  0  0  0  0  0  0  0  0  0  0
    2.3135    1.8798    2.2350 H   0  0  0  0  0  0  0  0  0  0  0  0
    2.1669    1.7262   -1.1883 H   0  0  0  0  0  0  0  0  0  0  0  0
    1.7063   -1.3537   -1.2842 H   0  0  0  0  0  0  0  0  0  0  0  0
  1  2  1  0
  2  3  1  0
  2  4  2  3
  4  5  1  0
  5  6  1  0
  6  7  1  0
  7  8  1  0
  7  9  2  3
  9 10  1  0
 10 11  2  0
  1 12  1  0
  1 13  1  0
  1 14  1  0
  3 15  1  0
  3 16  1  0
  3 17  1  0
  4 18  1  0
  5 19  1  0
  5 20  1  0
  6 21  1  0
  6 22  1  0
  8 23  1  0
  8 24  1  0
  8 25  1  0
  9 26  1  0
 10 27  1  0
M  END
>  <Energy>  (2) 
25.4010650134732

>  <Real charge>  (2) 
0

>  <Mult>  (2) 
1

$$$$
mol_3 260
     RDKit          3D

 27 26  0  0  0  0  0  0  0  0999 V2000
   -3.3567    1.5287    1.2955 C   0  0  0  0  0  0  0  0  0  0  0  0
   -2.2455    0.9388    0.4658 C   0  0  0  0  0  0  0  0  0  0  0  0
   -2.0567    1.6005   -0.8716 C   0  0  0  0  0  0  0  0  0  0  0  0
   -1.5091   -0.0872    0.9354 C   0  0  0  0  0  0  0  0  0  0  0  0
   -0.3933   -0.8128    0.2341 C   0  0  0  0  0  0  0  0  0  0  0  0
    0.9749   -0.3790    0.7702 C   0  0  0  0  0  0  0  0  0  0  0  0
    2.1163   -1.0683    0.0514 C   0  0  0  0  0  0  0  0  0  0  0  0
    2.4944   -2.4173    0.6087 C   0  0  0  0  0  0  0  0  0  0  0  0
    2.7948   -0.5607   -0.9952 C   0  0  0  0  0  0  0  0  0  0  0  0
    2.5113    0.7330   -1.6550 C   0  0  0  0  0  0  0  0  0  0  0  0
    3.1999    1.1310   -2.5873 O   0  0  0  0  0  0  0  0  0  0  0  0
   -3.4721    1.0202    2.2585 H   0  0  0  0  0  0  0  0  0  0  0  0
   -4.3097    1.4500    0.7621 H   0  0  0  0  0  0  0  0  0  0  0  0
   -3.1577    2.5859    1.4997 H   0  0  0  0  0  0  0  0  0  0  0  0
   -1.9432    2.6824   -0.7428 H   0  0  0  0  0  0  0  0  0  0  0  0
   -1.1710    1.2518   -1.4072 H   0  0  0  0  0  0  0  0  0  0  0  0
   -2.9291    1.4191   -1.5077 H   0  0  0  0  0  0  0  0  0  0  0  0
   -1.7328   -0.4725    1.9307 H   0  0  0  0  0  0  0  0  0  0  0  0
   -0.5365   -1.8887    0.3958 H   0  0  0  0  0  0  0  0  0  0  0  0
   -0.4411   -0.6697   -0.8503 H   0  0  0  0  0  0  0  0  0  0  0  0
    1.0427   -0.5988    1.8443 H   0  0  0  0  0  0  0  0  0  0  0  0
    1.0768    0.7104    0.7019 H   0  0  0  0  0  0  0  0  0  0  0  0
    3.3263   -2.8738    0.0617 H   0  0  0  0  0  0  0  0  0  0  0  0
    1.6454   -3.1058    0.5528 H   0  0  0  0  0  0  0  0  0  0  0  0
    2.7991   -2.3235    1.6561 H   0  0  0  0  0  0  0  0  0  0  0  0
    3.6180   -1.1051   -1.4503 H   0  0  0  0  0  0  0  0  0  0  0  0
    1.6544    1.3112   -1.2799 H   0  0  0  0  0  0  0  0  0  0  0  0
  1  2  1  0
  2  3  1  0
  2  4  2  3
  4  5  1  0
  5  6  1  0
  6  7  1  0
  7  8  1  0
  7  9  2  3
  9 10  1  0
 10 11  2  0
  1 12  1  0
  1 13  1  0
  1 14  1  0
  3 15  1  0
  3 16  1  0
  3 17  1  0
  4 18  1  0
  5 19  1  0
  5 20  1  0
  6 21  1  0
  6 22  1  0
  8 23  1  0
  8 24  1  0
  8 25  1  0
  9 26  1  0
 10 27  1  0
M  END
>  <Energy>  (3) 
25.98056592752171

>  <Real charge>  (3) 
0

>  <Mult>  (3) 
1

$$$$
mol_3 80
     RDKit          3D

 27 26  0  0  0  0  0  0  0  0999 V2000
    3.7333    0.5036    1.0434 C   0  0  0  0  0  0  0  0  0  0  0  0
    2.5121    0.2351    0.2027 C   0  0  0  0  0  0  0  0  0  0  0  0
    2.6483    0.6522   -1.2359 C   0  0  0  0  0  0  0  0  0  0  0  0
    1.4131   -0.3237    0.7462 C   0  0  0  0  0  0  0  0  0  0  0  0
    0.1311   -0.6895    0.0488 C   0  0  0  0  0  0  0  0  0  0  0  0
   -0.9676    0.3427    0.3233 C   0  0  0  0  0  0  0  0  0  0  0  0
   -2.2787   -0.0236   -0.3416 C   0  0  0  0  0  0  0  0  0  0  0  0
   -2.4033    0.4165   -1.7789 C   0  0  0  0  0  0  0  0  0  0  0  0
   -3.3014   -0.6674    0.2522 C   0  0  0  0  0  0  0  0  0  0  0  0
   -3.3067   -1.1743    1.6421 C   0  0  0  0  0  0  0  0  0  0  0  0
   -4.2970   -1.7229    2.1110 O   0  0  0  0  0  0  0  0  0  0  0  0
    4.5977   -0.0313    0.6364 H   0  0  0  0  0  0  0  0  0  0  0  0
    3.9592    1.5749    1.0534 H   0  0  0  0  0  0  0  0  0  0  0  0
    3.6025    0.1817    2.0819 H   0  0  0  0  0  0  0  0  0  0  0  0
    3.3980    0.0323   -1.7381 H   0  0  0  0  0  0  0  0  0  0  0  0
    1.7155    0.5763   -1.7993 H   0  0  0  0  0  0  0  0  0  0  0  0
    2.9698    1.6976   -1.2952 H   0  0  0  0  0  0  0  0  0  0  0  0
    1.4280   -0.5684    1.8086 H   0  0  0  0  0  0  0  0  0  0  0  0
    0.2838   -0.8144   -1.0280 H   0  0  0  0  0  0  0  0  0  0  0  0
   -0.1833   -1.6747    0.4170 H   0  0  0  0  0  0  0  0  0  0  0  0
   -1.1013    0.4705    1.4038 H   0  0  0  0  0  0  0  0  0  0  0  0
   -0.6495    1.3303   -0.0374 H   0  0  0  0  0  0  0  0  0  0  0  0
   -1.6207   -0.0440   -2.3900 H   0  0  0  0  0  0  0  0  0  0  0  0
   -2.3077    1.5048   -1.8523 H   0  0  0  0  0  0  0  0  0  0  0  0
   -3.3688    0.1393   -2.2154 H   0  0  0  0  0  0  0  0  0  0  0  0
   -4.2222   -0.8775   -0.2855 H   0  0  0  0  0  0  0  0  0  0  0  0
   -2.3843   -1.0461    2.2269 H   0  0  0  0  0  0  0  0  0  0  0  0
  1  2  1  0
  2  3  1  0
  2  4  2  3
  4  5  1  0
  5  6  1  0
  6  7  1  0
  7  8  1  0
  7  9  2  3
  9 10  1  0
 10 11  2  0
  1 12  1  0
  1 13  1  0
  1 14  1  0
  3 15  1  0
  3 16  1  0
  3 17  1  0
  4 18  1  0
  5 19  1  0
  5 20  1  0
  6 21  1  0
  6 22  1  0
  8 23  1  0
  8 24  1  0
  8 25  1  0
  9 26  1  0
 10 27  1  0
M  END
>  <Energy>  (4) 
26.232208389540684

>  <Real charge>  (4) 
0

>  <Mult>  (4) 
1

$$$$
mol_3 129
     RDKit          3D

 27 26  0  0  0  0  0  0  0  0999 V2000
   -2.0029    0.8747    1.1740 C   0  0  0  0  0  0  0  0  0  0  0  0
   -1.8364   -0.5161    0.6283 C   0  0  0  0  0  0  0  0  0  0  0  0
   -2.2904   -1.6022    1.5702 C   0  0  0  0  0  0  0  0  0  0  0  0
   -1.3277   -0.8296   -0.5794 C   0  0  0  0  0  0  0  0  0  0  0  0
   -0.8231    0.1004   -1.6515 C   0  0  0  0  0  0  0  0  0  0  0  0
    0.6761   -0.0831   -1.9356 C   0  0  0  0  0  0  0  0  0  0  0  0
    1.5850    0.3325   -0.7885 C   0  0  0  0  0  0  0  0  0  0  0  0
    1.6731    1.8167   -0.5544 C   0  0  0  0  0  0  0  0  0  0  0  0
    2.2490   -0.6121   -0.0949 C   0  0  0  0  0  0  0  0  0  0  0  0
    3.1457   -0.3790    1.0576 C   0  0  0  0  0  0  0  0  0  0  0  0
    3.7446   -1.3062    1.5907 O   0  0  0  0  0  0  0  0  0  0  0  0
   -1.4218    0.9878    2.0954 H   0  0  0  0  0  0  0  0  0  0  0  0
   -3.0564    1.0632    1.4061 H   0  0  0  0  0  0  0  0  0  0  0  0
   -1.6771    1.6575    0.4871 H   0  0  0  0  0  0  0  0  0  0  0  0
   -1.7213   -1.5554    2.5045 H   0  0  0  0  0  0  0  0  0  0  0  0
   -2.1543   -2.6036    1.1486 H   0  0  0  0  0  0  0  0  0  0  0  0
   -3.3535   -1.4817    1.8030 H   0  0  0  0  0  0  0  0  0  0  0  0
   -1.2631   -1.8845   -0.8491 H   0  0  0  0  0  0  0  0  0  0  0  0
   -1.0388    1.1492   -1.4322 H   0  0  0  0  0  0  0  0  0  0  0  0
   -1.3774   -0.1283   -2.5708 H   0  0  0  0  0  0  0  0  0  0  0  0
    0.9439    0.5053   -2.8228 H   0  0  0  0  0  0  0  0  0  0  0  0
    0.8631   -1.1292   -2.2138 H   0  0  0  0  0  0  0  0  0  0  0  0
    0.7429    2.1910   -0.1172 H   0  0  0  0  0  0  0  0  0  0  0  0
    1.8421    2.3387   -1.5025 H   0  0  0  0  0  0  0  0  0  0  0  0
    2.4928    2.1046    0.1070 H   0  0  0  0  0  0  0  0  0  0  0  0
    2.1403   -1.6650   -0.3421 H   0  0  0  0  0  0  0  0  0  0  0  0
    3.2455    0.6545    1.4173 H   0  0  0  0  0  0  0  0  0  0  0  0
  1  2  1  0
  2  3  1  0
  2  4  2  3
  4  5  1  0
  5  6  1  0
  6  7  1  0
  7  8  1  0
  7  9  2  3
  9 10  1  0
 10 11  2  0
  1 12  1  0
  1 13  1  0
  1 14  1  0
  3 15  1  0
  3 16  1  0
  3 17  1  0
  4 18  1  0
  5 19  1  0
  5 20  1  0
  6 21  1  0
  6 22  1  0
  8 23  1  0
  8 24  1  0
  8 25  1  0
  9 26  1  0
 10 27  1  0
M  END
>  <Energy>  (5) 
26.269979378959835

>  <Real charge>  (5) 
0

>  <Mult>  (5) 
1

$$$$
