mol_674 157
     RDKit          3D

 18 18  0  0  0  0  0  0  0  0999 V2000
    2.7345   -0.4382   -0.0183 C   0  0  0  0  0  0  0  0  0  0  0  0
    1.6839    0.5127    0.1051 O   0  0  0  0  0  0  0  0  0  0  0  0
    0.3996    0.0585   -0.0046 C   0  0  0  0  0  0  0  0  0  0  0  0
    0.0434   -1.2440   -0.3682 C   0  0  0  0  0  0  0  0  0  0  0  0
   -1.3054   -1.6091   -0.4866 C   0  0  0  0  0  0  0  0  0  0  0  0
   -2.3188   -0.6798   -0.2493 C   0  0  0  0  0  0  0  0  0  0  0  0
   -1.9888    0.6225    0.1131 C   0  0  0  0  0  0  0  0  0  0  0  0
   -0.6365    0.9705    0.2353 C   0  0  0  0  0  0  0  0  0  0  0  0
   -0.3270    2.3301    0.6277 N   0  0  0  0  0  4  0  0  0  0  0  0
    0.2046    2.4992    1.7338 O   0  0  0  0  0  1  0  0  0  0  0  0
   -0.6737    3.2298   -0.1515 O   0  0  0  0  0  0  0  0  0  0  0  0
    3.6797    0.0829    0.1618 H   0  0  0  0  0  0  0  0  0  0  0  0
    2.6422   -1.2306    0.7319 H   0  0  0  0  0  0  0  0  0  0  0  0
    2.7706   -0.8531   -1.0308 H   0  0  0  0  0  0  0  0  0  0  0  0
    0.7901   -2.0044   -0.5767 H   0  0  0  0  0  0  0  0  0  0  0  0
   -1.5642   -2.6271   -0.7723 H   0  0  0  0  0  0  0  0  0  0  0  0
   -3.3616   -0.9727   -0.3488 H   0  0  0  0  0  0  0  0  0  0  0  0
   -2.7728    1.3529    0.2983 H   0  0  0  0  0  0  0  0  0  0  0  0
  1  2  1  0
  2  3  1  0
  3  4  2  0
  4  5  1  0
  5  6  2  0
  6  7  1  0
  7  8  2  0
  8  9  1  0
  9 10  1  0
  9 11  2  0
  8  3  1  0
  1 12  1  0
  1 13  1  0
  1 14  1  0
  4 15  1  0
  5 16  1  0
  6 17  1  0
  7 18  1  0
M  CHG  2   9   1  10  -1
M  END
>  <Energy>  (1) 
59.36818146083077

>  <Real charge>  (1) 
0

>  <Mult>  (1) 
1

$$$$
