mol_158 164
     RDKit          3D

  9  8  0  0  0  0  0  0  0  0999 V2000
   -1.2526   -0.4467    0.2837 N   0  0  0  0  0  0  0  0  0  0  0  0
   -0.3096    0.5401    0.2186 C   0  0  0  0  0  0  0  0  0  0  0  0
   -0.6076    1.6963    0.5069 O   0  0  0  0  0  0  0  0  0  0  0  0
    1.1066    0.1203   -0.1209 C   0  0  0  0  0  0  0  0  0  0  0  0
    1.1176   -1.2024   -1.3115 Cl  0  0  0  0  0  0  0  0  0  0  0  0
   -2.2096   -0.1447    0.4164 H   0  0  0  0  0  0  0  0  0  0  0  0
   -1.1018   -1.3128   -0.2210 H   0  0  0  0  0  0  0  0  0  0  0  0
    1.6149   -0.2168    0.7859 H   0  0  0  0  0  0  0  0  0  0  0  0
    1.6422    0.9667   -0.5583 H   0  0  0  0  0  0  0  0  0  0  0  0
  1  2  1  0
  2  3  2  0
  2  4  1  0
  4  5  1  0
  1  6  1  0
  1  7  1  0
  4  8  1  0
  4  9  1  0
M  END
>  <Energy>  (1) 
-0.45389038995386777

>  <Real charge>  (1) 
0

>  <Mult>  (1) 
1

$$$$
