mol_286 291
     RDKit          3D

 25 25  0  0  0  0  0  0  0  0999 V2000
    0.6418   -0.3208    2.1425 O   0  0  0  0  0  0  0  0  0  0  0  0
    0.8886   -0.0726    0.9651 C   0  0  0  0  0  0  0  0  0  0  0  0
    2.1720    0.1900    0.5742 N   0  0  0  0  0  0  0  0  0  0  0  0
    2.6450   -0.0930   -0.6682 C   0  0  0  0  0  0  0  0  0  0  0  0
    3.8374   -0.3002   -0.8669 O   0  0  0  0  0  0  0  0  0  0  0  0
    1.7271   -0.2229   -1.6628 N   0  0  0  0  0  0  0  0  0  0  0  0
    0.3951   -0.4582   -1.4572 C   0  0  0  0  0  0  0  0  0  0  0  0
   -0.2828   -0.9697   -2.3451 O   0  0  0  0  0  0  0  0  0  0  0  0
   -0.1699    0.0247   -0.1261 C   0  0  0  0  0  0  0  0  0  0  0  0
   -0.5027    1.5324   -0.3433 C   0  0  0  0  0  0  0  0  0  0  0  0
   -1.1870    2.2316    0.8264 C   0  0  0  0  0  0  0  0  0  0  0  0
   -1.4407   -0.7750    0.2523 C   0  0  0  0  0  0  0  0  0  0  0  0
   -1.2295   -2.2826    0.3903 C   0  0  0  0  0  0  0  0  0  0  0  0
    2.8644    0.1162    1.3082 H   0  0  0  0  0  0  0  0  0  0  0  0
    2.0954   -0.5591   -2.5427 H   0  0  0  0  0  0  0  0  0  0  0  0
   -1.1469    1.6388   -1.2267 H   0  0  0  0  0  0  0  0  0  0  0  0
    0.4140    2.0908   -0.5761 H   0  0  0  0  0  0  0  0  0  0  0  0
   -2.1816    1.8189    1.0170 H   0  0  0  0  0  0  0  0  0  0  0  0
   -0.5951    2.1593    1.7432 H   0  0  0  0  0  0  0  0  0  0  0  0
   -1.3151    3.2949    0.5976 H   0  0  0  0  0  0  0  0  0  0  0  0
   -2.2227   -0.6062   -0.4991 H   0  0  0  0  0  0  0  0  0  0  0  0
   -1.8427   -0.4176    1.2079 H   0  0  0  0  0  0  0  0  0  0  0  0
   -2.1700   -2.7616    0.6823 H   0  0  0  0  0  0  0  0  0  0  0  0
   -0.4865   -2.5194    1.1571 H   0  0  0  0  0  0  0  0  0  0  0  0
   -0.9078   -2.7386   -0.5498 H   0  0  0  0  0  0  0  0  0  0  0  0
  1  2  2  0
  2  3  1  0
  3  4  1  0
  4  5  2  0
  4  6  1  0
  6  7  1  0
  7  8  2  0
  7  9  1  0
  9 10  1  0
 10 11  1  0
  9 12  1  0
 12 13  1  0
  9  2  1  0
  3 14  1  0
  6 15  1  0
 10 16  1  0
 10 17  1  0
 11 18  1  0
 11 19  1  0
 11 20  1  0
 12 21  1  0
 12 22  1  0
 13 23  1  0
 13 24  1  0
 13 25  1  0
M  END
>  <Energy>  (1) 
-128.4048129484164

>  <Real charge>  (1) 
0

>  <Mult>  (1) 
1

$$$$
mol_286 274
     RDKit          3D

 25 25  0  0  0  0  0  0  0  0999 V2000
    0.5215   -0.1880    2.3424 O   0  0  0  0  0  0  0  0  0  0  0  0
   -0.0357   -0.4229    1.2717 C   0  0  0  0  0  0  0  0  0  0  0  0
   -0.9842   -1.4028    1.2000 N   0  0  0  0  0  0  0  0  0  0  0  0
   -1.8868   -1.5543    0.1966 C   0  0  0  0  0  0  0  0  0  0  0  0
   -2.8878   -2.2494    0.3340 O   0  0  0  0  0  0  0  0  0  0  0  0
   -1.6606   -0.8529   -0.9442 N   0  0  0  0  0  0  0  0  0  0  0  0
   -0.7768    0.1796   -1.0778 C   0  0  0  0  0  0  0  0  0  0  0  0
   -0.8618    0.9366   -2.0430 O   0  0  0  0  0  0  0  0  0  0  0  0
    0.3135    0.2880   -0.0250 C   0  0  0  0  0  0  0  0  0  0  0  0
    1.6160   -0.3414   -0.5973 C   0  0  0  0  0  0  0  0  0  0  0  0
    1.5479   -1.8229   -0.9557 C   0  0  0  0  0  0  0  0  0  0  0  0
    0.6015    1.7870    0.2685 C   0  0  0  0  0  0  0  0  0  0  0  0
   -0.5869    2.5571    0.8409 C   0  0  0  0  0  0  0  0  0  0  0  0
   -1.2179   -1.8570    2.0725 H   0  0  0  0  0  0  0  0  0  0  0  0
   -2.3898   -0.9043   -1.6427 H   0  0  0  0  0  0  0  0  0  0  0  0
    1.9166    0.2056   -1.5009 H   0  0  0  0  0  0  0  0  0  0  0  0
    2.4304   -0.2121    0.1280 H   0  0  0  0  0  0  0  0  0  0  0  0
    2.5169   -2.1522   -1.3458 H   0  0  0  0  0  0  0  0  0  0  0  0
    1.3208   -2.4410   -0.0827 H   0  0  0  0  0  0  0  0  0  0  0  0
    0.8011   -2.0185   -1.7302 H   0  0  0  0  0  0  0  0  0  0  0  0
    1.4364    1.8763    0.9758 H   0  0  0  0  0  0  0  0  0  0  0  0
    0.9233    2.2934   -0.6508 H   0  0  0  0  0  0  0  0  0  0  0  0
   -0.9185    2.1377    1.7952 H   0  0  0  0  0  0  0  0  0  0  0  0
   -0.3022    3.5994    1.0184 H   0  0  0  0  0  0  0  0  0  0  0  0
   -1.4368    2.5590    0.1521 H   0  0  0  0  0  0  0  0  0  0  0  0
  1  2  2  0
  2  3  1  0
  3  4  1  0
  4  5  2  0
  4  6  1  0
  6  7  1  0
  7  8  2  0
  7  9  1  0
  9 10  1  0
 10 11  1  0
  9 12  1  0
 12 13  1  0
  9  2  1  0
  3 14  1  0
  6 15  1  0
 10 16  1  0
 10 17  1  0
 11 18  1  0
 11 19  1  0
 11 20  1  0
 12 21  1  0
 12 22  1  0
 13 23  1  0
 13 24  1  0
 13 25  1  0
M  END
>  <Energy>  (2) 
-127.97486275677987

>  <Real charge>  (2) 
0

>  <Mult>  (2) 
1

$$$$
