mol_379 205
     RDKit          3D

 22 22  0  0  0  0  0  0  0  0999 V2000
    4.0282    0.2479    0.1999 C   0  0  0  0  0  0  0  0  0  0  0  0
    2.7303    0.0172    0.9536 C   0  0  0  0  0  0  0  0  0  0  0  0
    1.5064    0.1180    0.0558 C   0  0  0  0  0  0  0  0  0  0  0  0
    1.5910    0.3603   -1.1418 O   0  0  0  0  0  0  0  0  0  0  0  0
    0.3374   -0.0970    0.7710 N   0  0  0  0  0  0  0  0  0  0  0  0
   -0.9849   -0.0830    0.2801 C   0  0  0  0  0  0  0  0  0  0  0  0
   -1.3210    0.1597   -1.0528 C   0  0  0  0  0  0  0  0  0  0  0  0
   -2.6600    0.1565   -1.4617 C   0  0  0  0  0  0  0  0  0  0  0  0
   -3.6788   -0.0897   -0.5409 C   0  0  0  0  0  0  0  0  0  0  0  0
   -5.3075   -0.0787   -1.1138 Cl  0  0  0  0  0  0  0  0  0  0  0  0
   -3.3525   -0.3337    0.7952 C   0  0  0  0  0  0  0  0  0  0  0  0
   -4.5523   -0.6474    1.9995 Cl  0  0  0  0  0  0  0  0  0  0  0  0
   -2.0115   -0.3297    1.2007 C   0  0  0  0  0  0  0  0  0  0  0  0
    4.0464    1.2433   -0.2563 H   0  0  0  0  0  0  0  0  0  0  0  0
    4.8827    0.1673    0.8788 H   0  0  0  0  0  0  0  0  0  0  0  0
    4.1553   -0.4898   -0.5993 H   0  0  0  0  0  0  0  0  0  0  0  0
    2.6371    0.7609    1.7531 H   0  0  0  0  0  0  0  0  0  0  0  0
    2.7465   -0.9796    1.4087 H   0  0  0  0  0  0  0  0  0  0  0  0
    0.4455   -0.2860    1.7603 H   0  0  0  0  0  0  0  0  0  0  0  0
   -0.5649    0.3566   -1.8076 H   0  0  0  0  0  0  0  0  0  0  0  0
   -2.8952    0.3485   -2.5063 H   0  0  0  0  0  0  0  0  0  0  0  0
   -1.7783   -0.5217    2.2452 H   0  0  0  0  0  0  0  0  0  0  0  0
  1  2  1  0
  2  3  1  0
  3  4  2  0
  3  5  1  0
  5  6  1  0
  6  7  2  0
  7  8  1  0
  8  9  2  0
  9 10  1  0
  9 11  1  0
 11 12  1  0
 11 13  2  0
 13  6  1  0
  1 14  1  0
  1 15  1  0
  1 16  1  0
  2 17  1  0
  2 18  1  0
  5 19  1  0
  7 20  1  0
  8 21  1  0
 13 22  1  0
M  END
>  <Energy>  (1) 
2.3030397305432713

>  <Real charge>  (1) 
0

>  <Mult>  (1) 
1

$$$$
mol_379 163
     RDKit          3D

 22 22  0  0  0  0  0  0  0  0999 V2000
    3.9767   -0.0400    0.6620 C   0  0  0  0  0  0  0  0  0  0  0  0
    2.8125   -0.1599   -0.3056 C   0  0  0  0  0  0  0  0  0  0  0  0
    1.4638    0.0026    0.3788 C   0  0  0  0  0  0  0  0  0  0  0  0
    1.3601    0.2070    1.5818 O   0  0  0  0  0  0  0  0  0  0  0  0
    0.4206   -0.1115   -0.5280 N   0  0  0  0  0  0  0  0  0  0  0  0
   -0.9618   -0.0180   -0.2642 C   0  0  0  0  0  0  0  0  0  0  0  0
   -1.8277   -0.1691   -1.3548 C   0  0  0  0  0  0  0  0  0  0  0  0
   -3.2129   -0.0909   -1.1830 C   0  0  0  0  0  0  0  0  0  0  0  0
   -3.7498    0.1398    0.0842 C   0  0  0  0  0  0  0  0  0  0  0  0
   -5.4691    0.2248    0.2255 Cl  0  0  0  0  0  0  0  0  0  0  0  0
   -2.8939    0.2918    1.1788 C   0  0  0  0  0  0  0  0  0  0  0  0
   -3.4882    0.5798    2.7772 Cl  0  0  0  0  0  0  0  0  0  0  0  0
   -1.5053    0.2127    1.0021 C   0  0  0  0  0  0  0  0  0  0  0  0
    3.9192   -0.8055    1.4430 H   0  0  0  0  0  0  0  0  0  0  0  0
    4.9265   -0.1623    0.1325 H   0  0  0  0  0  0  0  0  0  0  0  0
    3.9816    0.9394    1.1518 H   0  0  0  0  0  0  0  0  0  0  0  0
    2.8411   -1.1431   -0.7886 H   0  0  0  0  0  0  0  0  0  0  0  0
    2.9037    0.6091   -1.0810 H   0  0  0  0  0  0  0  0  0  0  0  0
    0.6810   -0.2816   -1.4918 H   0  0  0  0  0  0  0  0  0  0  0  0
   -1.4401   -0.3498   -2.3548 H   0  0  0  0  0  0  0  0  0  0  0  0
   -3.8674   -0.2110   -2.0433 H   0  0  0  0  0  0  0  0  0  0  0  0
   -0.8705    0.3356    1.8743 H   0  0  0  0  0  0  0  0  0  0  0  0
  1  2  1  0
  2  3  1  0
  3  4  2  0
  3  5  1  0
  5  6  1  0
  6  7  2  0
  7  8  1  0
  8  9  2  0
  9 10  1  0
  9 11  1  0
 11 12  1  0
 11 13  2  0
 13  6  1  0
  1 14  1  0
  1 15  1  0
  1 16  1  0
  2 17  1  0
  2 18  1  0
  5 19  1  0
  7 20  1  0
  8 21  1  0
 13 22  1  0
M  END
>  <Energy>  (2) 
2.6567913757324497

>  <Real charge>  (2) 
0

>  <Mult>  (2) 
1

$$$$
