mol_126 416
     RDKit          3D

 29 28  0  0  0  0  0  0  0  0999 V2000
    4.4056   -0.6515    0.7230 C   0  0  0  0  0  0  0  0  0  0  0  0
    3.2305   -0.8138   -0.1908 C   0  0  0  0  0  0  0  0  0  0  0  0
    3.2837   -0.7459   -1.4104 O   0  0  0  0  0  0  0  0  0  0  0  0
    2.1009   -1.0401    0.5335 O   0  0  0  0  0  0  0  0  0  0  0  0
    0.8974   -1.2117   -0.2435 C   0  0  0  0  0  0  0  0  0  0  0  0
    0.3103    0.1474   -0.6486 C   0  0  0  0  0  0  0  0  0  0  0  0
   -0.8276   -0.0213   -1.6672 C   0  0  0  0  0  0  0  0  0  0  0  0
   -1.7964   -0.9932   -1.2230 O   0  0  0  0  0  0  0  0  0  0  0  0
   -2.8617   -0.5115   -0.5257 C   0  0  0  0  0  0  0  0  0  0  0  0
   -3.0615    0.6596   -0.2390 O   0  0  0  0  0  0  0  0  0  0  0  0
   -3.7695   -1.6403   -0.1430 C   0  0  0  0  0  0  0  0  0  0  0  0
   -0.1815    0.7751    0.5593 O   0  0  0  0  0  0  0  0  0  0  0  0
   -0.3496    2.1245    0.4930 C   0  0  0  0  0  0  0  0  0  0  0  0
   -0.0611    2.8252   -0.4668 O   0  0  0  0  0  0  0  0  0  0  0  0
   -0.9161    2.6374    1.7807 C   0  0  0  0  0  0  0  0  0  0  0  0
    5.3073   -0.4838    0.1272 H   0  0  0  0  0  0  0  0  0  0  0  0
    4.2517    0.2126    1.3741 H   0  0  0  0  0  0  0  0  0  0  0  0
    4.5437   -1.5600    1.3145 H   0  0  0  0  0  0  0  0  0  0  0  0
    0.1996   -1.7543    0.4040 H   0  0  0  0  0  0  0  0  0  0  0  0
    1.1007   -1.8467   -1.1142 H   0  0  0  0  0  0  0  0  0  0  0  0
    1.1010    0.7752   -1.0762 H   0  0  0  0  0  0  0  0  0  0  0  0
   -1.3180    0.9310   -1.8968 H   0  0  0  0  0  0  0  0  0  0  0  0
   -0.4186   -0.4034   -2.6091 H   0  0  0  0  0  0  0  0  0  0  0  0
   -3.2361   -2.3412    0.5040 H   0  0  0  0  0  0  0  0  0  0  0  0
   -4.1330   -2.1451   -1.0416 H   0  0  0  0  0  0  0  0  0  0  0  0
   -4.6292   -1.2441    0.4051 H   0  0  0  0  0  0  0  0  0  0  0  0
   -0.1878    2.5025    2.5841 H   0  0  0  0  0  0  0  0  0  0  0  0
   -1.8466    2.1138    2.0141 H   0  0  0  0  0  0  0  0  0  0  0  0
   -1.1380    3.7035    1.6794 H   0  0  0  0  0  0  0  0  0  0  0  0
  1  2  1  0
  2  3  2  0
  2  4  1  0
  4  5  1  0
  5  6  1  0
  6  7  1  0
  7  8  1  0
  8  9  1  0
  9 10  2  0
  9 11  1  0
  6 12  1  0
 12 13  1  0
 13 14  2  0
 13 15  1  0
  1 16  1  0
  1 17  1  0
  1 18  1  0
  5 19  1  0
  5 20  1  0
  6 21  1  0
  7 22  1  0
  7 23  1  0
 11 24  1  0
 11 25  1  0
 11 26  1  0
 15 27  1  0
 15 28  1  0
 15 29  1  0
M  END
>  <Energy>  (1) 
-16.29980103974857

>  <Real charge>  (1) 
0

>  <Mult>  (1) 
1

$$$$
mol_126 202
     RDKit          3D

 29 28  0  0  0  0  0  0  0  0999 V2000
    4.1703   -0.3438    1.2261 C   0  0  0  0  0  0  0  0  0  0  0  0
    2.8536   -1.0108    0.9747 C   0  0  0  0  0  0  0  0  0  0  0  0
    2.2317   -1.6604    1.8041 O   0  0  0  0  0  0  0  0  0  0  0  0
    2.4603   -0.8065   -0.3139 O   0  0  0  0  0  0  0  0  0  0  0  0
    1.1728   -1.3552   -0.6467 C   0  0  0  0  0  0  0  0  0  0  0  0
    0.0316   -0.4655   -0.1335 C   0  0  0  0  0  0  0  0  0  0  0  0
   -1.3145   -1.1619   -0.3493 C   0  0  0  0  0  0  0  0  0  0  0  0
   -2.3488   -0.3707    0.2634 O   0  0  0  0  0  0  0  0  0  0  0  0
   -3.6020   -0.8757    0.1049 C   0  0  0  0  0  0  0  0  0  0  0  0
   -3.8792   -1.9026   -0.4980 O   0  0  0  0  0  0  0  0  0  0  0  0
   -4.6033    0.0116    0.7781 C   0  0  0  0  0  0  0  0  0  0  0  0
    0.0101    0.7632   -0.9059 O   0  0  0  0  0  0  0  0  0  0  0  0
    0.7178    1.8106   -0.4037 C   0  0  0  0  0  0  0  0  0  0  0  0
    1.3692    1.8074    0.6307 O   0  0  0  0  0  0  0  0  0  0  0  0
    0.5886    2.9930   -1.3145 C   0  0  0  0  0  0  0  0  0  0  0  0
    4.9465   -0.8185    0.6210 H   0  0  0  0  0  0  0  0  0  0  0  0
    4.0991    0.7216    0.9933 H   0  0  0  0  0  0  0  0  0  0  0  0
    4.4330   -0.4486    2.2826 H   0  0  0  0  0  0  0  0  0  0  0  0
    1.1411   -1.4109   -1.7407 H   0  0  0  0  0  0  0  0  0  0  0  0
    1.0960   -2.3810   -0.2665 H   0  0  0  0  0  0  0  0  0  0  0  0
    0.1423   -0.2267    0.9305 H   0  0  0  0  0  0  0  0  0  0  0  0
   -1.3072   -2.1544    0.1160 H   0  0  0  0  0  0  0  0  0  0  0  0
   -1.5266   -1.2507   -1.4218 H   0  0  0  0  0  0  0  0  0  0  0  0
   -5.6054   -0.4052    0.6429 H   0  0  0  0  0  0  0  0  0  0  0  0
   -4.5768    1.0076    0.3291 H   0  0  0  0  0  0  0  0  0  0  0  0
   -4.3900    0.0657    1.8486 H   0  0  0  0  0  0  0  0  0  0  0  0
   -0.4612    3.2858   -1.3953 H   0  0  0  0  0  0  0  0  0  0  0  0
    1.1533    3.8331   -0.9001 H   0  0  0  0  0  0  0  0  0  0  0  0
    0.9978    2.7494   -2.2981 H   0  0  0  0  0  0  0  0  0  0  0  0
  1  2  1  0
  2  3  2  0
  2  4  1  0
  4  5  1  0
  5  6  1  0
  6  7  1  0
  7  8  1  0
  8  9  1  0
  9 10  2  0
  9 11  1  0
  6 12  1  0
 12 13  1  0
 13 14  2  0
 13 15  1  0
  1 16  1  0
  1 17  1  0
  1 18  1  0
  5 19  1  0
  5 20  1  0
  6 21  1  0
  7 22  1  0
  7 23  1  0
 11 24  1  0
 11 25  1  0
 11 26  1  0
 15 27  1  0
 15 28  1  0
 15 29  1  0
M  END
>  <Energy>  (2) 
-15.654215343907024

>  <Real charge>  (2) 
0

>  <Mult>  (2) 
1

$$$$
mol_126 400
     RDKit          3D

 29 28  0  0  0  0  0  0  0  0999 V2000
    3.9207    1.8809   -1.3956 C   0  0  0  0  0  0  0  0  0  0  0  0
    3.2925    1.6304   -0.0592 C   0  0  0  0  0  0  0  0  0  0  0  0
    3.8132    1.9001    1.0132 O   0  0  0  0  0  0  0  0  0  0  0  0
    2.0644    1.0661   -0.2193 O   0  0  0  0  0  0  0  0  0  0  0  0
    1.3858    0.7726    1.0146 C   0  0  0  0  0  0  0  0  0  0  0  0
    0.0555    0.0663    0.7305 C   0  0  0  0  0  0  0  0  0  0  0  0
   -0.7984    0.8677   -0.2647 C   0  0  0  0  0  0  0  0  0  0  0  0
   -2.1333    0.3372   -0.3622 O   0  0  0  0  0  0  0  0  0  0  0  0
   -2.9600    0.6716    0.6676 C   0  0  0  0  0  0  0  0  0  0  0  0
   -2.6619    1.4100    1.5965 O   0  0  0  0  0  0  0  0  0  0  0  0
   -4.2961    0.0192    0.4917 C   0  0  0  0  0  0  0  0  0  0  0  0
    0.3630   -1.2292    0.1540 O   0  0  0  0  0  0  0  0  0  0  0  0
   -0.5063   -2.2394    0.4254 C   0  0  0  0  0  0  0  0  0  0  0  0
   -1.5022   -2.1580    1.1294 O   0  0  0  0  0  0  0  0  0  0  0  0
   -0.0626   -3.4915   -0.2671 C   0  0  0  0  0  0  0  0  0  0  0  0
    4.9094    2.3265   -1.2535 H   0  0  0  0  0  0  0  0  0  0  0  0
    4.0387    0.9364   -1.9326 H   0  0  0  0  0  0  0  0  0  0  0  0
    3.3039    2.5764   -1.9703 H   0  0  0  0  0  0  0  0  0  0  0  0
    2.0226    0.1175    1.6213 H   0  0  0  0  0  0  0  0  0  0  0  0
    1.2010    1.7102    1.5516 H   0  0  0  0  0  0  0  0  0  0  0  0
   -0.4626   -0.0728    1.6861 H   0  0  0  0  0  0  0  0  0  0  0  0
   -0.8411    1.9315   -0.0014 H   0  0  0  0  0  0  0  0  0  0  0  0
   -0.3755    0.7963   -1.2729 H   0  0  0  0  0  0  0  0  0  0  0  0
   -4.9258    0.2450    1.3570 H   0  0  0  0  0  0  0  0  0  0  0  0
   -4.1755   -1.0650    0.4266 H   0  0  0  0  0  0  0  0  0  0  0  0
   -4.7814    0.4069   -0.4072 H   0  0  0  0  0  0  0  0  0  0  0  0
   -0.0390   -3.3288   -1.3476 H   0  0  0  0  0  0  0  0  0  0  0  0
   -0.7722   -4.2956   -0.0519 H   0  0  0  0  0  0  0  0  0  0  0  0
    0.9230   -3.7886    0.0996 H   0  0  0  0  0  0  0  0  0  0  0  0
  1  2  1  0
  2  3  2  0
  2  4  1  0
  4  5  1  0
  5  6  1  0
  6  7  1  0
  7  8  1  0
  8  9  1  0
  9 10  2  0
  9 11  1  0
  6 12  1  0
 12 13  1  0
 13 14  2  0
 13 15  1  0
  1 16  1  0
  1 17  1  0
  1 18  1  0
  5 19  1  0
  5 20  1  0
  6 21  1  0
  7 22  1  0
  7 23  1  0
 11 24  1  0
 11 25  1  0
 11 26  1  0
 15 27  1  0
 15 28  1  0
 15 29  1  0
M  END
>  <Energy>  (3) 
-15.607299519707615

>  <Real charge>  (3) 
0

>  <Mult>  (3) 
1

$$$$
mol_126 477
     RDKit          3D

 29 28  0  0  0  0  0  0  0  0999 V2000
    2.8355   -2.2553    0.7848 C   0  0  0  0  0  0  0  0  0  0  0  0
    1.5205   -1.8511    0.1937 C   0  0  0  0  0  0  0  0  0  0  0  0
    0.4437   -2.3580    0.4788 O   0  0  0  0  0  0  0  0  0  0  0  0
    1.7011   -0.8559   -0.7199 O   0  0  0  0  0  0  0  0  0  0  0  0
    0.4873   -0.3435   -1.2973 C   0  0  0  0  0  0  0  0  0  0  0  0
   -0.2126    0.6469   -0.3495 C   0  0  0  0  0  0  0  0  0  0  0  0
   -1.6146    0.9823   -0.8712 C   0  0  0  0  0  0  0  0  0  0  0  0
   -2.4594   -0.1780   -0.8951 O   0  0  0  0  0  0  0  0  0  0  0  0
   -3.0483   -0.4888    0.2940 C   0  0  0  0  0  0  0  0  0  0  0  0
   -2.9504    0.1653    1.3218 O   0  0  0  0  0  0  0  0  0  0  0  0
   -3.8386   -1.7537    0.1614 C   0  0  0  0  0  0  0  0  0  0  0  0
    0.5376    1.8846   -0.3096 O   0  0  0  0  0  0  0  0  0  0  0  0
    1.5047    1.9771    0.6442 C   0  0  0  0  0  0  0  0  0  0  0  0
    1.7946    1.1145    1.4599 O   0  0  0  0  0  0  0  0  0  0  0  0
    2.1814    3.3106    0.5517 C   0  0  0  0  0  0  0  0  0  0  0  0
    2.6666   -2.9995    1.5683 H   0  0  0  0  0  0  0  0  0  0  0  0
    3.4688   -2.6958    0.0109 H   0  0  0  0  0  0  0  0  0  0  0  0
    3.3249   -1.3876    1.2342 H   0  0  0  0  0  0  0  0  0  0  0  0
   -0.1628   -1.1776   -1.5861 H   0  0  0  0  0  0  0  0  0  0  0  0
    0.7833    0.1694   -2.2195 H   0  0  0  0  0  0  0  0  0  0  0  0
   -0.2948    0.2242    0.6581 H   0  0  0  0  0  0  0  0  0  0  0  0
   -1.5533    1.3633   -1.8977 H   0  0  0  0  0  0  0  0  0  0  0  0
   -2.0719    1.7922   -0.2882 H   0  0  0  0  0  0  0  0  0  0  0  0
   -4.6259   -1.6227   -0.5851 H   0  0  0  0  0  0  0  0  0  0  0  0
   -4.3046   -1.9921    1.1218 H   0  0  0  0  0  0  0  0  0  0  0  0
   -3.1756   -2.5765   -0.1177 H   0  0  0  0  0  0  0  0  0  0  0  0
    2.6576    3.4173   -0.4262 H   0  0  0  0  0  0  0  0  0  0  0  0
    2.9525    3.3802    1.3244 H   0  0  0  0  0  0  0  0  0  0  0  0
    1.4526    4.1084    0.7148 H   0  0  0  0  0  0  0  0  0  0  0  0
  1  2  1  0
  2  3  2  0
  2  4  1  0
  4  5  1  0
  5  6  1  0
  6  7  1  0
  7  8  1  0
  8  9  1  0
  9 10  2  0
  9 11  1  0
  6 12  1  0
 12 13  1  0
 13 14  2  0
 13 15  1  0
  1 16  1  0
  1 17  1  0
  1 18  1  0
  5 19  1  0
  5 20  1  0
  6 21  1  0
  7 22  1  0
  7 23  1  0
 11 24  1  0
 11 25  1  0
 11 26  1  0
 15 27  1  0
 15 28  1  0
 15 29  1  0
M  END
>  <Energy>  (4) 
-15.533779185756082

>  <Real charge>  (4) 
0

>  <Mult>  (4) 
1

$$$$
mol_126 132
     RDKit          3D

 29 28  0  0  0  0  0  0  0  0999 V2000
   -3.7915   -2.1215   -1.5944 C   0  0  0  0  0  0  0  0  0  0  0  0
   -2.4070   -2.3014   -1.0524 C   0  0  0  0  0  0  0  0  0  0  0  0
   -1.7400   -3.3184   -1.1773 O   0  0  0  0  0  0  0  0  0  0  0  0
   -2.0096   -1.1742   -0.4027 O   0  0  0  0  0  0  0  0  0  0  0  0
   -0.6774   -1.2455    0.1400 C   0  0  0  0  0  0  0  0  0  0  0  0
   -0.3503    0.0931    0.8101 C   0  0  0  0  0  0  0  0  0  0  0  0
    0.9468    0.0057    1.6297 C   0  0  0  0  0  0  0  0  0  0  0  0
    2.0234   -0.5626    0.8576 O   0  0  0  0  0  0  0  0  0  0  0  0
    2.8202    0.3165    0.1901 C   0  0  0  0  0  0  0  0  0  0  0  0
    2.7025    1.5330    0.1906 O   0  0  0  0  0  0  0  0  0  0  0  0
    3.8775   -0.4292   -0.5652 C   0  0  0  0  0  0  0  0  0  0  0  0
   -0.2184    1.0808   -0.2382 O   0  0  0  0  0  0  0  0  0  0  0  0
   -0.3599    2.3753    0.1593 C   0  0  0  0  0  0  0  0  0  0  0  0
   -0.6394    2.7376    1.2937 O   0  0  0  0  0  0  0  0  0  0  0  0
   -0.1479    3.2977   -1.0010 C   0  0  0  0  0  0  0  0  0  0  0  0
   -4.0944   -3.0296   -2.1235 H   0  0  0  0  0  0  0  0  0  0  0  0
   -3.8081   -1.2865   -2.2994 H   0  0  0  0  0  0  0  0  0  0  0  0
   -4.4911   -1.9464   -0.7732 H   0  0  0  0  0  0  0  0  0  0  0  0
    0.0223   -1.4459   -0.6803 H   0  0  0  0  0  0  0  0  0  0  0  0
   -0.6400   -2.0568    0.8761 H   0  0  0  0  0  0  0  0  0  0  0  0
   -1.1891    0.3732    1.4603 H   0  0  0  0  0  0  0  0  0  0  0  0
    0.7932   -0.6648    2.4824 H   0  0  0  0  0  0  0  0  0  0  0  0
    1.2408    0.9782    2.0397 H   0  0  0  0  0  0  0  0  0  0  0  0
    4.4944   -1.0041    0.1299 H   0  0  0  0  0  0  0  0  0  0  0  0
    3.4109   -1.0878   -1.3021 H   0  0  0  0  0  0  0  0  0  0  0  0
    4.5185    0.2842   -1.0911 H   0  0  0  0  0  0  0  0  0  0  0  0
    0.8314    3.1138   -1.4498 H   0  0  0  0  0  0  0  0  0  0  0  0
   -0.9416    3.1526   -1.7379 H   0  0  0  0  0  0  0  0  0  0  0  0
   -0.1764    4.3332   -0.6501 H   0  0  0  0  0  0  0  0  0  0  0  0
  1  2  1  0
  2  3  2  0
  2  4  1  0
  4  5  1  0
  5  6  1  0
  6  7  1  0
  7  8  1  0
  8  9  1  0
  9 10  2  0
  9 11  1  0
  6 12  1  0
 12 13  1  0
 13 14  2  0
 13 15  1  0
  1 16  1  0
  1 17  1  0
  1 18  1  0
  5 19  1  0
  5 20  1  0
  6 21  1  0
  7 22  1  0
  7 23  1  0
 11 24  1  0
 11 25  1  0
 11 26  1  0
 15 27  1  0
 15 28  1  0
 15 29  1  0
M  END
>  <Energy>  (5) 
-15.405469583181633

>  <Real charge>  (5) 
0

>  <Mult>  (5) 
1

$$$$
mol_126 174
     RDKit          3D

 29 28  0  0  0  0  0  0  0  0999 V2000
   -3.8156   -1.7161   -0.9917 C   0  0  0  0  0  0  0  0  0  0  0  0
   -2.5398   -1.9371   -0.2398 C   0  0  0  0  0  0  0  0  0  0  0  0
   -1.7993   -2.8991   -0.3909 O   0  0  0  0  0  0  0  0  0  0  0  0
   -2.3345   -0.9241    0.6478 O   0  0  0  0  0  0  0  0  0  0  0  0
   -1.0981   -1.0026    1.3795 C   0  0  0  0  0  0  0  0  0  0  0  0
    0.0883   -0.5283    0.5284 C   0  0  0  0  0  0  0  0  0  0  0  0
    1.4053   -0.7999    1.2640 C   0  0  0  0  0  0  0  0  0  0  0  0
    2.5222   -0.5373    0.3905 O   0  0  0  0  0  0  0  0  0  0  0  0
    3.1109    0.6835    0.5069 C   0  0  0  0  0  0  0  0  0  0  0  0
    2.7927    1.5612    1.2959 O   0  0  0  0  0  0  0  0  0  0  0  0
    4.2256    0.8063   -0.4865 C   0  0  0  0  0  0  0  0  0  0  0  0
   -0.0243    0.9029    0.3354 O   0  0  0  0  0  0  0  0  0  0  0  0
   -0.6596    1.3265   -0.7882 C   0  0  0  0  0  0  0  0  0  0  0  0
   -1.1446    0.6091   -1.6511 O   0  0  0  0  0  0  0  0  0  0  0  0
   -0.6809    2.8240   -0.8247 C   0  0  0  0  0  0  0  0  0  0  0  0
   -4.6635   -1.7678   -0.3044 H   0  0  0  0  0  0  0  0  0  0  0  0
   -3.9283   -2.4960   -1.7502 H   0  0  0  0  0  0  0  0  0  0  0  0
   -3.7879   -0.7469   -1.4960 H   0  0  0  0  0  0  0  0  0  0  0  0
   -1.2194   -0.3495    2.2510 H   0  0  0  0  0  0  0  0  0  0  0  0
   -0.9525   -2.0227    1.7550 H   0  0  0  0  0  0  0  0  0  0  0  0
    0.1187   -1.0279   -0.4467 H   0  0  0  0  0  0  0  0  0  0  0  0
    1.4739   -1.8581    1.5383 H   0  0  0  0  0  0  0  0  0  0  0  0
    1.4808   -0.2147    2.1881 H   0  0  0  0  0  0  0  0  0  0  0  0
    4.9795    0.0386   -0.2951 H   0  0  0  0  0  0  0  0  0  0  0  0
    4.6953    1.7888   -0.3846 H   0  0  0  0  0  0  0  0  0  0  0  0
    3.8294    0.7134   -1.5009 H   0  0  0  0  0  0  0  0  0  0  0  0
    0.3420    3.2086   -0.8387 H   0  0  0  0  0  0  0  0  0  0  0  0
   -1.1911    3.1573   -1.7329 H   0  0  0  0  0  0  0  0  0  0  0  0
   -1.2253    3.2080    0.0417 H   0  0  0  0  0  0  0  0  0  0  0  0
  1  2  1  0
  2  3  2  0
  2  4  1  0
  4  5  1  0
  5  6  1  0
  6  7  1  0
  7  8  1  0
  8  9  1  0
  9 10  2  0
  9 11  1  0
  6 12  1  0
 12 13  1  0
 13 14  2  0
 13 15  1  0
  1 16  1  0
  1 17  1  0
  1 18  1  0
  5 19  1  0
  5 20  1  0
  6 21  1  0
  7 22  1  0
  7 23  1  0
 11 24  1  0
 11 25  1  0
 11 26  1  0
 15 27  1  0
 15 28  1  0
 15 29  1  0
M  END
>  <Energy>  (6) 
-15.368022806712272

>  <Real charge>  (6) 
0

>  <Mult>  (6) 
1

$$$$
