mol_595 18
     RDKit          3D

 15 15  0  0  0  0  0  0  0  0999 V2000
   -1.1691    0.4424    0.2567 C   0  0  0  0  0  0  0  0  0  0  0  0
   -0.0577    1.1838   -0.4845 C   0  0  0  0  0  0  0  0  0  0  0  0
    1.1362    0.2317   -0.5326 C   0  0  0  0  0  0  0  0  0  0  0  0
    0.8007   -0.8845    0.4446 C   0  0  0  0  0  0  0  0  0  0  0  0
   -0.7086   -1.0054    0.3289 C   0  0  0  0  0  0  0  0  0  0  0  0
   -2.1376    0.5428   -0.2423 H   0  0  0  0  0  0  0  0  0  0  0  0
   -1.2728    0.8522    1.2686 H   0  0  0  0  0  0  0  0  0  0  0  0
    0.1969    2.1120    0.0385 H   0  0  0  0  0  0  0  0  0  0  0  0
   -0.3707    1.4554   -1.4985 H   0  0  0  0  0  0  0  0  0  0  0  0
    1.2399   -0.1769   -1.5449 H   0  0  0  0  0  0  0  0  0  0  0  0
    2.0755    0.7328   -0.2798 H   0  0  0  0  0  0  0  0  0  0  0  0
    1.0815   -0.5924    1.4634 H   0  0  0  0  0  0  0  0  0  0  0  0
    1.3151   -1.8186    0.2015 H   0  0  0  0  0  0  0  0  0  0  0  0
   -1.1514   -1.5410    1.1734 H   0  0  0  0  0  0  0  0  0  0  0  0
   -0.9778   -1.5343   -0.5930 H   0  0  0  0  0  0  0  0  0  0  0  0
  1  2  1  0
  2  3  1  0
  3  4  1  0
  4  5  1  0
  5  1  1  0
  1  6  1  0
  1  7  1  0
  2  8  1  0
  2  9  1  0
  3 10  1  0
  3 11  1  0
  4 12  1  0
  4 13  1  0
  5 14  1  0
  5 15  1  0
M  END
>  <Energy>  (1) 
1.5475284987459506

>  <Real charge>  (1) 
0

>  <Mult>  (1) 
1

$$$$
