mol_563 371
     RDKit          3D

 30 31  0  0  0  0  0  0  0  0999 V2000
    2.7303   -0.4493   -0.5467 C   0  0  0  0  0  0  0  0  0  0  0  0
    3.5943    0.6413   -0.6601 C   0  0  0  0  0  0  0  0  0  0  0  0
    3.3648    1.7940    0.0877 C   0  0  0  0  0  0  0  0  0  0  0  0
    2.2730    1.8563    0.9507 C   0  0  0  0  0  0  0  0  0  0  0  0
    1.4095    0.7653    1.0667 C   0  0  0  0  0  0  0  0  0  0  0  0
    1.6275   -0.4033    0.3199 C   0  0  0  0  0  0  0  0  0  0  0  0
    0.6588   -1.5624    0.4264 C   0  0  0  0  0  0  0  0  0  0  0  0
    1.3802   -2.8024    0.3061 O   0  0  0  0  0  0  0  0  0  0  0  0
   -0.4492   -1.5257   -0.6610 C   0  0  0  0  0  0  0  0  0  0  0  0
   -1.1030   -2.8138   -0.6788 O   0  0  0  0  0  0  0  0  0  0  0  0
   -1.4881   -0.4448   -0.4502 C   0  0  0  0  0  0  0  0  0  0  0  0
   -2.4503   -0.5517    0.5668 C   0  0  0  0  0  0  0  0  0  0  0  0
   -3.3937    0.4580    0.7609 C   0  0  0  0  0  0  0  0  0  0  0  0
   -3.3844    1.5871   -0.0550 C   0  0  0  0  0  0  0  0  0  0  0  0
   -2.4315    1.7087   -1.0643 C   0  0  0  0  0  0  0  0  0  0  0  0
   -1.4877    0.6993   -1.2613 C   0  0  0  0  0  0  0  0  0  0  0  0
    2.9267   -1.3463   -1.1310 H   0  0  0  0  0  0  0  0  0  0  0  0
    4.4491    0.5873   -1.3290 H   0  0  0  0  0  0  0  0  0  0  0  0
    4.0389    2.6418    0.0008 H   0  0  0  0  0  0  0  0  0  0  0  0
    2.0925    2.7547    1.5351 H   0  0  0  0  0  0  0  0  0  0  0  0
    0.5586    0.8360    1.7413 H   0  0  0  0  0  0  0  0  0  0  0  0
    0.2137   -1.5851    1.4286 H   0  0  0  0  0  0  0  0  0  0  0  0
    0.6888   -3.4606    0.0897 H   0  0  0  0  0  0  0  0  0  0  0  0
    0.0063   -1.4246   -1.6540 H   0  0  0  0  0  0  0  0  0  0  0  0
   -1.9414   -2.6865   -1.1593 H   0  0  0  0  0  0  0  0  0  0  0  0
   -2.4689   -1.4258    1.2157 H   0  0  0  0  0  0  0  0  0  0  0  0
   -4.1350    0.3648    1.5506 H   0  0  0  0  0  0  0  0  0  0  0  0
   -4.1176    2.3749    0.0978 H   0  0  0  0  0  0  0  0  0  0  0  0
   -2.4194    2.5932   -1.6962 H   0  0  0  0  0  0  0  0  0  0  0  0
   -0.7429    0.8196   -2.0461 H   0  0  0  0  0  0  0  0  0  0  0  0
  1  2  2  0
  2  3  1  0
  3  4  2  0
  4  5  1  0
  5  6  2  0
  6  7  1  0
  7  8  1  0
  7  9  1  0
  9 10  1  0
  9 11  1  0
 11 12  2  0
 12 13  1  0
 13 14  2  0
 14 15  1  0
 15 16  2  0
  6  1  1  0
 16 11  1  0
  1 17  1  0
  2 18  1  0
  3 19  1  0
  4 20  1  0
  5 21  1  0
  7 22  1  0
  8 23  1  0
  9 24  1  0
 10 25  1  0
 12 26  1  0
 13 27  1  0
 14 28  1  0
 15 29  1  0
 16 30  1  0
M  END
>  <Energy>  (1) 
80.33389191727562

>  <Real charge>  (1) 
0

>  <Mult>  (1) 
1

$$$$
