mol_963 5
     RDKit          3D

 22 23  0  0  0  0  0  0  0  0999 V2000
    5.1798   -0.1310   -0.6498 Cl  0  0  0  0  0  0  0  0  0  0  0  0
    3.4732   -0.0878   -0.4357 C   0  0  0  0  0  0  0  0  0  0  0  0
    2.7054    0.8087   -1.1749 C   0  0  0  0  0  0  0  0  0  0  0  0
    1.3192    0.8434   -1.0007 C   0  0  0  0  0  0  0  0  0  0  0  0
    0.6897   -0.0174   -0.0865 C   0  0  0  0  0  0  0  0  0  0  0  0
    1.4818   -0.9142    0.6493 C   0  0  0  0  0  0  0  0  0  0  0  0
    2.8681   -0.9496    0.4757 C   0  0  0  0  0  0  0  0  0  0  0  0
   -0.7713    0.0195    0.0968 C   0  0  0  0  0  0  0  0  0  0  0  0
   -1.3702    0.8637    1.0550 C   0  0  0  0  0  0  0  0  0  0  0  0
   -0.4271    1.9045    2.0708 Cl  0  0  0  0  0  0  0  0  0  0  0  0
   -2.7597    0.8979    1.2283 C   0  0  0  0  0  0  0  0  0  0  0  0
   -3.5837    0.0906    0.4496 C   0  0  0  0  0  0  0  0  0  0  0  0
   -3.0186   -0.7517   -0.5033 C   0  0  0  0  0  0  0  0  0  0  0  0
   -1.6294   -0.7879   -0.6787 C   0  0  0  0  0  0  0  0  0  0  0  0
   -1.0193   -1.8679   -1.8893 Cl  0  0  0  0  0  0  0  0  0  0  0  0
    3.1762    1.4816   -1.8864 H   0  0  0  0  0  0  0  0  0  0  0  0
    0.7301    1.5483   -1.5842 H   0  0  0  0  0  0  0  0  0  0  0  0
    1.0206   -1.5926    1.3645 H   0  0  0  0  0  0  0  0  0  0  0  0
    3.4658   -1.6495    1.0531 H   0  0  0  0  0  0  0  0  0  0  0  0
   -3.2036    1.5555    1.9726 H   0  0  0  0  0  0  0  0  0  0  0  0
   -4.6623    0.1179    0.5849 H   0  0  0  0  0  0  0  0  0  0  0  0
   -3.6648   -1.3818   -1.1109 H   0  0  0  0  0  0  0  0  0  0  0  0
  1  2  1  0
  2  3  2  0
  3  4  1  0
  4  5  2  0
  5  6  1  0
  6  7  2  0
  5  8  1  0
  8  9  2  0
  9 10  1  0
  9 11  1  0
 11 12  2  0
 12 13  1  0
 13 14  2  0
 14 15  1  0
  7  2  1  0
 14  8  1  0
  3 16  1  0
  4 17  1  0
  6 18  1  0
  7 19  1  0
 11 20  1  0
 12 21  1  0
 13 22  1  0
M  END
>  <Energy>  (1) 
45.48174019166104

>  <Real charge>  (1) 
0

>  <Mult>  (1) 
1

$$$$
