mol_800 21
     RDKit          3D

 22 24  0  0  0  0  0  0  0  0999 V2000
    1.6349   -0.6100    2.7479 Cl  0  0  0  0  0  0  0  0  0  0  0  0
    1.2748   -0.0289    1.1985 C   0  0  0  0  0  0  0  0  0  0  0  0
    1.0294    1.2348    0.8321 C   0  0  0  0  0  0  0  0  0  0  0  0
    0.9924    2.6156    1.8113 Cl  0  0  0  0  0  0  0  0  0  0  0  0
    0.7166    1.2217   -0.6521 C   0  0  0  0  0  0  0  0  0  0  0  0
    0.8626    2.7541   -1.4969 Cl  0  0  0  0  0  0  0  0  0  0  0  0
   -0.6717    0.5237   -0.8554 C   0  0  0  0  0  0  0  0  0  0  0  0
   -1.8043    0.9120    0.0414 C   0  0  0  0  0  0  0  0  0  0  0  0
   -2.1882   -0.0946    0.8337 C   0  0  0  0  0  0  0  0  0  0  0  0
   -1.3997   -1.3480    0.6273 C   0  0  0  0  0  0  0  0  0  0  0  0
   -0.3759   -0.9614   -0.4458 C   0  0  0  0  0  0  0  0  0  0  0  0
    1.1321   -0.8963   -0.0387 C   0  0  0  0  0  0  0  0  0  0  0  0
    1.8994   -2.4742    0.0243 Cl  0  0  0  0  0  0  0  0  0  0  0  0
    1.7042    0.0985   -1.1044 C   0  0  0  0  0  0  0  0  0  0  0  0
    1.5122   -0.4290   -2.8159 Cl  0  0  0  0  0  0  0  0  0  0  0  0
    3.4550    0.5010   -0.9019 Cl  0  0  0  0  0  0  0  0  0  0  0  0
   -1.0032    0.5704   -1.9000 H   0  0  0  0  0  0  0  0  0  0  0  0
   -2.2601    1.8952    0.0393 H   0  0  0  0  0  0  0  0  0  0  0  0
   -2.9954   -0.0248    1.5533 H   0  0  0  0  0  0  0  0  0  0  0  0
   -2.0614   -2.1396    0.2589 H   0  0  0  0  0  0  0  0  0  0  0  0
   -0.9440   -1.6985    1.5564 H   0  0  0  0  0  0  0  0  0  0  0  0
   -0.5096   -1.6218   -1.3132 H   0  0  0  0  0  0  0  0  0  0  0  0
  1  2  1  0
  2  3  2  0
  3  4  1  0
  3  5  1  0
  5  6  1  0
  5  7  1  0
  7  8  1  0
  8  9  2  0
  9 10  1  0
 10 11  1  0
 11 12  1  0
 12 13  1  0
 12 14  1  0
 14 15  1  0
 14 16  1  0
 11  7  1  0
 12  2  1  0
 14  5  1  0
  7 17  1  0
  8 18  1  0
  9 19  1  0
 10 20  1  0
 10 21  1  0
 11 22  1  0
M  END
>  <Energy>  (1) 
89.81264597220706

>  <Real charge>  (1) 
0

>  <Mult>  (1) 
1

$$$$
