mol_825 36
     RDKit          3D

 22 23  0  0  0  0  0  0  0  0999 V2000
   -3.7949   -1.2564    2.2315 Cl  0  0  0  0  0  0  0  0  0  0  0  0
   -2.8931   -0.6127    0.9158 C   0  0  0  0  0  0  0  0  0  0  0  0
   -3.5571   -0.1611   -0.2214 C   0  0  0  0  0  0  0  0  0  0  0  0
   -2.8242    0.3607   -1.2877 C   0  0  0  0  0  0  0  0  0  0  0  0
   -1.4293    0.4292   -1.2130 C   0  0  0  0  0  0  0  0  0  0  0  0
   -0.5815    1.0872   -2.5702 Cl  0  0  0  0  0  0  0  0  0  0  0  0
   -0.7443   -0.0244   -0.0675 C   0  0  0  0  0  0  0  0  0  0  0  0
   -1.5014   -0.5476    0.9979 C   0  0  0  0  0  0  0  0  0  0  0  0
    0.7304    0.0324    0.0471 C   0  0  0  0  0  0  0  0  0  0  0  0
    1.3735    1.1743    0.5862 C   0  0  0  0  0  0  0  0  0  0  0  0
    0.4193    2.5201    1.1442 Cl  0  0  0  0  0  0  0  0  0  0  0  0
    2.7740    1.2269    0.6758 C   0  0  0  0  0  0  0  0  0  0  0  0
    3.6169    2.5910    1.3247 Cl  0  0  0  0  0  0  0  0  0  0  0  0
    3.5479    0.1539    0.2363 C   0  0  0  0  0  0  0  0  0  0  0  0
    2.9343   -0.9799   -0.2940 C   0  0  0  0  0  0  0  0  0  0  0  0
    3.9698   -2.2661   -0.8097 Cl  0  0  0  0  0  0  0  0  0  0  0  0
    1.5351   -1.0489   -0.3908 C   0  0  0  0  0  0  0  0  0  0  0  0
    0.7822   -2.4740   -1.0504 Cl  0  0  0  0  0  0  0  0  0  0  0  0
   -4.6412   -0.2121   -0.2846 H   0  0  0  0  0  0  0  0  0  0  0  0
   -3.3458    0.7126   -2.1748 H   0  0  0  0  0  0  0  0  0  0  0  0
   -1.0035   -0.9064    1.8967 H   0  0  0  0  0  0  0  0  0  0  0  0
    4.6329    0.2013    0.3079 H   0  0  0  0  0  0  0  0  0  0  0  0
  1  2  1  0
  2  3  2  0
  3  4  1  0
  4  5  2  0
  5  6  1  0
  5  7  1  0
  7  8  2  0
  7  9  1  0
  9 10  2  0
 10 11  1  0
 10 12  1  0
 12 13  1  0
 12 14  2  0
 14 15  1  0
 15 16  1  0
 15 17  2  0
 17 18  1  0
  8  2  1  0
 17  9  1  0
  3 19  1  0
  4 20  1  0
  8 21  1  0
 14 22  1  0
M  END
>  <Energy>  (1) 
47.692909608862486

>  <Real charge>  (1) 
0

>  <Mult>  (1) 
1

$$$$
