mol_897 61
     RDKit          3D

 24 23  0  0  0  0  0  0  0  0999 V2000
    3.5192   -0.0382   -0.0201 C   0  0  0  0  0  0  0  0  0  0  0  0
    2.2070    0.3247    0.6568 C   0  0  0  0  0  0  0  0  0  0  0  0
    1.0051   -0.0524   -0.2117 C   0  0  0  0  0  0  0  0  0  0  0  0
   -0.3142    0.3112    0.4820 C   0  0  0  0  0  0  0  0  0  0  0  0
   -1.5760    0.0446   -0.3652 C   0  0  0  0  0  0  0  0  0  0  0  0
   -1.7272   -1.4304   -0.7399 C   0  0  0  0  0  0  0  0  0  0  0  0
   -2.8216    0.5142    0.3934 C   0  0  0  0  0  0  0  0  0  0  0  0
   -1.4971    0.7893   -1.5824 O   0  0  0  0  0  0  0  0  0  0  0  0
    3.6264    0.4866   -0.9748 H   0  0  0  0  0  0  0  0  0  0  0  0
    3.5778   -1.1146   -0.2109 H   0  0  0  0  0  0  0  0  0  0  0  0
    4.3642    0.2402    0.6173 H   0  0  0  0  0  0  0  0  0  0  0  0
    2.1455   -0.1914    1.6220 H   0  0  0  0  0  0  0  0  0  0  0  0
    2.1951    1.4013    0.8626 H   0  0  0  0  0  0  0  0  0  0  0  0
    1.0772    0.4651   -1.1753 H   0  0  0  0  0  0  0  0  0  0  0  0
    1.0375   -1.1285   -0.4153 H   0  0  0  0  0  0  0  0  0  0  0  0
   -0.3858   -0.2350    1.4312 H   0  0  0  0  0  0  0  0  0  0  0  0
   -0.2776    1.3802    0.7312 H   0  0  0  0  0  0  0  0  0  0  0  0
   -1.7319   -2.0729    0.1464 H   0  0  0  0  0  0  0  0  0  0  0  0
   -0.9256   -1.7589   -1.4097 H   0  0  0  0  0  0  0  0  0  0  0  0
   -2.6610   -1.5966   -1.2900 H   0  0  0  0  0  0  0  0  0  0  0  0
   -2.9570   -0.0399    1.3280 H   0  0  0  0  0  0  0  0  0  0  0  0
   -3.7221    0.3897   -0.2189 H   0  0  0  0  0  0  0  0  0  0  0  0
   -2.7563    1.5823    0.6302 H   0  0  0  0  0  0  0  0  0  0  0  0
   -1.4016    1.7294   -1.3527 H   0  0  0  0  0  0  0  0  0  0  0  0
  1  2  1  0
  2  3  1  0
  3  4  1  0
  4  5  1  0
  5  6  1  0
  5  7  1  0
  5  8  1  0
  1  9  1  0
  1 10  1  0
  1 11  1  0
  2 12  1  0
  2 13  1  0
  3 14  1  0
  3 15  1  0
  4 16  1  0
  4 17  1  0
  6 18  1  0
  6 19  1  0
  6 20  1  0
  7 21  1  0
  7 22  1  0
  7 23  1  0
  8 24  1  0
M  END
>  <Energy>  (1) 
8.534773494500522

>  <Real charge>  (1) 
0

>  <Mult>  (1) 
1

$$$$
mol_897 41
     RDKit          3D

 24 23  0  0  0  0  0  0  0  0999 V2000
    3.2856    0.5029    0.7506 C   0  0  0  0  0  0  0  0  0  0  0  0
    2.2784    0.0099   -0.2761 C   0  0  0  0  0  0  0  0  0  0  0  0
    0.8443    0.1232    0.2457 C   0  0  0  0  0  0  0  0  0  0  0  0
   -0.1615   -0.3760   -0.7954 C   0  0  0  0  0  0  0  0  0  0  0  0
   -1.6435   -0.3033   -0.3746 C   0  0  0  0  0  0  0  0  0  0  0  0
   -1.9442   -1.1813    0.8407 C   0  0  0  0  0  0  0  0  0  0  0  0
   -2.1107    1.1314   -0.1209 C   0  0  0  0  0  0  0  0  0  0  0  0
   -2.4217   -0.8273   -1.4594 O   0  0  0  0  0  0  0  0  0  0  0  0
    3.2250   -0.0838    1.6728 H   0  0  0  0  0  0  0  0  0  0  0  0
    4.3029    0.4130    0.3571 H   0  0  0  0  0  0  0  0  0  0  0  0
    3.1094    1.5542    0.9997 H   0  0  0  0  0  0  0  0  0  0  0  0
    2.3874    0.5957   -1.1963 H   0  0  0  0  0  0  0  0  0  0  0  0
    2.5023   -1.0335   -0.5267 H   0  0  0  0  0  0  0  0  0  0  0  0
    0.7531   -0.4607    1.1681 H   0  0  0  0  0  0  0  0  0  0  0  0
    0.6375    1.1690    0.4980 H   0  0  0  0  0  0  0  0  0  0  0  0
   -0.0286    0.1930   -1.7258 H   0  0  0  0  0  0  0  0  0  0  0  0
    0.0790   -1.4141   -1.0631 H   0  0  0  0  0  0  0  0  0  0  0  0
   -1.6179   -2.2128    0.6660 H   0  0  0  0  0  0  0  0  0  0  0  0
   -3.0235   -1.2277    1.0281 H   0  0  0  0  0  0  0  0  0  0  0  0
   -1.4584   -0.8114    1.7485 H   0  0  0  0  0  0  0  0  0  0  0  0
   -1.8987    1.7693   -0.9865 H   0  0  0  0  0  0  0  0  0  0  0  0
   -1.6330    1.5713    0.7596 H   0  0  0  0  0  0  0  0  0  0  0  0
   -3.1963    1.1646    0.0278 H   0  0  0  0  0  0  0  0  0  0  0  0
   -2.2669   -0.2655   -2.2380 H   0  0  0  0  0  0  0  0  0  0  0  0
  1  2  1  0
  2  3  1  0
  3  4  1  0
  4  5  1  0
  5  6  1  0
  5  7  1  0
  5  8  1  0
  1  9  1  0
  1 10  1  0
  1 11  1  0
  2 12  1  0
  2 13  1  0
  3 14  1  0
  3 15  1  0
  4 16  1  0
  4 17  1  0
  6 18  1  0
  6 19  1  0
  6 20  1  0
  7 21  1  0
  7 22  1  0
  7 23  1  0
  8 24  1  0
M  END
>  <Energy>  (2) 
8.774249218458039

>  <Real charge>  (2) 
0

>  <Mult>  (2) 
1

$$$$
mol_897 247
     RDKit          3D

 24 23  0  0  0  0  0  0  0  0999 V2000
    3.3561   -0.8879   -0.4327 C   0  0  0  0  0  0  0  0  0  0  0  0
    2.2835    0.1898   -0.4331 C   0  0  0  0  0  0  0  0  0  0  0  0
    0.9267   -0.3690    0.0015 C   0  0  0  0  0  0  0  0  0  0  0  0
   -0.1488    0.7252   -0.0061 C   0  0  0  0  0  0  0  0  0  0  0  0
   -1.5474    0.2696    0.4612 C   0  0  0  0  0  0  0  0  0  0  0  0
   -2.5061    1.4645    0.4364 C   0  0  0  0  0  0  0  0  0  0  0  0
   -2.1191   -0.8636   -0.3940 C   0  0  0  0  0  0  0  0  0  0  0  0
   -1.4768   -0.1707    1.8188 O   0  0  0  0  0  0  0  0  0  0  0  0
    4.3166   -0.4669   -0.7458 H   0  0  0  0  0  0  0  0  0  0  0  0
    3.0989   -1.6977   -1.1229 H   0  0  0  0  0  0  0  0  0  0  0  0
    3.4823   -1.3154    0.5672 H   0  0  0  0  0  0  0  0  0  0  0  0
    2.5870    0.9986    0.2418 H   0  0  0  0  0  0  0  0  0  0  0  0
    2.2050    0.6183   -1.4390 H   0  0  0  0  0  0  0  0  0  0  0  0
    1.0201   -0.7988    1.0051 H   0  0  0  0  0  0  0  0  0  0  0  0
    0.6427   -1.1802   -0.6777 H   0  0  0  0  0  0  0  0  0  0  0  0
    0.1942    1.5341    0.6530 H   0  0  0  0  0  0  0  0  0  0  0  0
   -0.2217    1.1459   -1.0174 H   0  0  0  0  0  0  0  0  0  0  0  0
   -3.4934    1.1819    0.8199 H   0  0  0  0  0  0  0  0  0  0  0  0
   -2.6286    1.8634   -0.5759 H   0  0  0  0  0  0  0  0  0  0  0  0
   -2.1437    2.2698    1.0858 H   0  0  0  0  0  0  0  0  0  0  0  0
   -3.1327   -1.1222   -0.0659 H   0  0  0  0  0  0  0  0  0  0  0  0
   -1.5305   -1.7815   -0.2932 H   0  0  0  0  0  0  0  0  0  0  0  0
   -2.1596   -0.5872   -1.4525 H   0  0  0  0  0  0  0  0  0  0  0  0
   -1.0045   -1.0198    1.8407 H   0  0  0  0  0  0  0  0  0  0  0  0
  1  2  1  0
  2  3  1  0
  3  4  1  0
  4  5  1  0
  5  6  1  0
  5  7  1  0
  5  8  1  0
  1  9  1  0
  1 10  1  0
  1 11  1  0
  2 12  1  0
  2 13  1  0
  3 14  1  0
  3 15  1  0
  4 16  1  0
  4 17  1  0
  6 18  1  0
  6 19  1  0
  6 20  1  0
  7 21  1  0
  7 22  1  0
  7 23  1  0
  8 24  1  0
M  END
>  <Energy>  (3) 
8.918711420951169

>  <Real charge>  (3) 
0

>  <Mult>  (3) 
1

$$$$
mol_897 26
     RDKit          3D

 24 23  0  0  0  0  0  0  0  0999 V2000
    3.0037    0.6427   -0.0982 C   0  0  0  0  0  0  0  0  0  0  0  0
    2.3696   -0.7199    0.1348 C   0  0  0  0  0  0  0  0  0  0  0  0
    0.9160   -0.8077   -0.3399 C   0  0  0  0  0  0  0  0  0  0  0  0
   -0.0316    0.1104    0.4446 C   0  0  0  0  0  0  0  0  0  0  0  0
   -1.5276   -0.0974    0.1248 C   0  0  0  0  0  0  0  0  0  0  0  0
   -2.3811    0.8241    1.0023 C   0  0  0  0  0  0  0  0  0  0  0  0
   -1.8487    0.1520   -1.3495 C   0  0  0  0  0  0  0  0  0  0  0  0
   -1.8944   -1.4466    0.4203 O   0  0  0  0  0  0  0  0  0  0  0  0
    2.9277    0.9371   -1.1497 H   0  0  0  0  0  0  0  0  0  0  0  0
    4.0648    0.6135    0.1695 H   0  0  0  0  0  0  0  0  0  0  0  0
    2.5297    1.4157    0.5136 H   0  0  0  0  0  0  0  0  0  0  0  0
    2.9562   -1.4736   -0.4040 H   0  0  0  0  0  0  0  0  0  0  0  0
    2.4307   -0.9736    1.1995 H   0  0  0  0  0  0  0  0  0  0  0  0
    0.5889   -1.8489   -0.2356 H   0  0  0  0  0  0  0  0  0  0  0  0
    0.8754   -0.5658   -1.4080 H   0  0  0  0  0  0  0  0  0  0  0  0
    0.1288   -0.0766    1.5147 H   0  0  0  0  0  0  0  0  0  0  0  0
    0.2331    1.1580    0.2578 H   0  0  0  0  0  0  0  0  0  0  0  0
   -3.4492    0.6452    0.8334 H   0  0  0  0  0  0  0  0  0  0  0  0
   -2.2011    0.6289    2.0657 H   0  0  0  0  0  0  0  0  0  0  0  0
   -2.1695    1.8797    0.8035 H   0  0  0  0  0  0  0  0  0  0  0  0
   -2.9246    0.0504   -1.5344 H   0  0  0  0  0  0  0  0  0  0  0  0
   -1.5388    1.1533   -1.6655 H   0  0  0  0  0  0  0  0  0  0  0  0
   -1.3646   -0.5874   -1.9962 H   0  0  0  0  0  0  0  0  0  0  0  0
   -1.6932   -1.6135    1.3570 H   0  0  0  0  0  0  0  0  0  0  0  0
  1  2  1  0
  2  3  1  0
  3  4  1  0
  4  5  1  0
  5  6  1  0
  5  7  1  0
  5  8  1  0
  1  9  1  0
  1 10  1  0
  1 11  1  0
  2 12  1  0
  2 13  1  0
  3 14  1  0
  3 15  1  0
  4 16  1  0
  4 17  1  0
  6 18  1  0
  6 19  1  0
  6 20  1  0
  7 21  1  0
  7 22  1  0
  7 23  1  0
  8 24  1  0
M  END
>  <Energy>  (4) 
9.322514889070796

>  <Real charge>  (4) 
0

>  <Mult>  (4) 
1

$$$$
mol_897 452
     RDKit          3D

 24 23  0  0  0  0  0  0  0  0999 V2000
    3.0049   -0.5147    0.6863 C   0  0  0  0  0  0  0  0  0  0  0  0
    2.3766   -0.4215   -0.6956 C   0  0  0  0  0  0  0  0  0  0  0  0
    0.8595   -0.6325   -0.6936 C   0  0  0  0  0  0  0  0  0  0  0  0
    0.0985    0.4641    0.0652 C   0  0  0  0  0  0  0  0  0  0  0  0
   -1.4359    0.3911   -0.0802 C   0  0  0  0  0  0  0  0  0  0  0  0
   -2.0069   -0.9385    0.4177 C   0  0  0  0  0  0  0  0  0  0  0  0
   -2.0802    1.5552    0.6799 C   0  0  0  0  0  0  0  0  0  0  0  0
   -1.7650    0.5358   -1.4635 O   0  0  0  0  0  0  0  0  0  0  0  0
    2.6742    0.3028    1.3335 H   0  0  0  0  0  0  0  0  0  0  0  0
    2.7528   -1.4638    1.1697 H   0  0  0  0  0  0  0  0  0  0  0  0
    4.0952   -0.4538    0.6076 H   0  0  0  0  0  0  0  0  0  0  0  0
    2.8318   -1.1853   -1.3372 H   0  0  0  0  0  0  0  0  0  0  0  0
    2.6178    0.5505   -1.1413 H   0  0  0  0  0  0  0  0  0  0  0  0
    0.5210   -0.6612   -1.7360 H   0  0  0  0  0  0  0  0  0  0  0  0
    0.6375   -1.6137   -0.2587 H   0  0  0  0  0  0  0  0  0  0  0  0
    0.4411    1.4355   -0.3155 H   0  0  0  0  0  0  0  0  0  0  0  0
    0.3612    0.4230    1.1290 H   0  0  0  0  0  0  0  0  0  0  0  0
   -1.7171   -1.1376    1.4544 H   0  0  0  0  0  0  0  0  0  0  0  0
   -1.6784   -1.7747   -0.2083 H   0  0  0  0  0  0  0  0  0  0  0  0
   -3.1019   -0.9361    0.3621 H   0  0  0  0  0  0  0  0  0  0  0  0
   -3.1685    1.5545    0.5497 H   0  0  0  0  0  0  0  0  0  0  0  0
   -1.8602    1.5081    1.7514 H   0  0  0  0  0  0  0  0  0  0  0  0
   -1.7250    2.5173    0.2932 H   0  0  0  0  0  0  0  0  0  0  0  0
   -2.7329    0.4954   -1.5484 H   0  0  0  0  0  0  0  0  0  0  0  0
  1  2  1  0
  2  3  1  0
  3  4  1  0
  4  5  1  0
  5  6  1  0
  5  7  1  0
  5  8  1  0
  1  9  1  0
  1 10  1  0
  1 11  1  0
  2 12  1  0
  2 13  1  0
  3 14  1  0
  3 15  1  0
  4 16  1  0
  4 17  1  0
  6 18  1  0
  6 19  1  0
  6 20  1  0
  7 21  1  0
  7 22  1  0
  7 23  1  0
  8 24  1  0
M  END
>  <Energy>  (5) 
9.399723642169407

>  <Real charge>  (5) 
0

>  <Mult>  (5) 
1

$$$$
mol_897 98
     RDKit          3D

 24 23  0  0  0  0  0  0  0  0999 V2000
    3.0663   -0.1068   -0.4031 C   0  0  0  0  0  0  0  0  0  0  0  0
    2.3013    0.7900    0.5579 C   0  0  0  0  0  0  0  0  0  0  0  0
    0.8213    0.9547    0.1988 C   0  0  0  0  0  0  0  0  0  0  0  0
    0.0147   -0.3426    0.3500 C   0  0  0  0  0  0  0  0  0  0  0  0
   -1.4854   -0.2047    0.0109 C   0  0  0  0  0  0  0  0  0  0  0  0
   -2.1671   -1.5743    0.1012 C   0  0  0  0  0  0  0  0  0  0  0  0
   -2.2048    0.7873    0.9261 C   0  0  0  0  0  0  0  0  0  0  0  0
   -1.6279    0.2687   -1.3298 O   0  0  0  0  0  0  0  0  0  0  0  0
    2.7235   -1.1439   -0.3450 H   0  0  0  0  0  0  0  0  0  0  0  0
    4.1328   -0.0978   -0.1559 H   0  0  0  0  0  0  0  0  0  0  0  0
    2.9555    0.2382   -1.4359 H   0  0  0  0  0  0  0  0  0  0  0  0
    2.7701    1.7814    0.5532 H   0  0  0  0  0  0  0  0  0  0  0  0
    2.3974    0.3995    1.5777 H   0  0  0  0  0  0  0  0  0  0  0  0
    0.4063    1.7231    0.8603 H   0  0  0  0  0  0  0  0  0  0  0  0
    0.7360    1.3352   -0.8258 H   0  0  0  0  0  0  0  0  0  0  0  0
    0.1271   -0.7219    1.3736 H   0  0  0  0  0  0  0  0  0  0  0  0
    0.4482   -1.0951   -0.3199 H   0  0  0  0  0  0  0  0  0  0  0  0
   -2.1170   -1.9832    1.1156 H   0  0  0  0  0  0  0  0  0  0  0  0
   -3.2200   -1.5071   -0.1958 H   0  0  0  0  0  0  0  0  0  0  0  0
   -1.6998   -2.2904   -0.5845 H   0  0  0  0  0  0  0  0  0  0  0  0
   -2.0804    0.5250    1.9816 H   0  0  0  0  0  0  0  0  0  0  0  0
   -1.8465    1.8104    0.7717 H   0  0  0  0  0  0  0  0  0  0  0  0
   -3.2780    0.8122    0.7025 H   0  0  0  0  0  0  0  0  0  0  0  0
   -1.1735   -0.3579   -1.9187 H   0  0  0  0  0  0  0  0  0  0  0  0
  1  2  1  0
  2  3  1  0
  3  4  1  0
  4  5  1  0
  5  6  1  0
  5  7  1  0
  5  8  1  0
  1  9  1  0
  1 10  1  0
  1 11  1  0
  2 12  1  0
  2 13  1  0
  3 14  1  0
  3 15  1  0
  4 16  1  0
  4 17  1  0
  6 18  1  0
  6 19  1  0
  6 20  1  0
  7 21  1  0
  7 22  1  0
  7 23  1  0
  8 24  1  0
M  END
>  <Energy>  (6) 
9.489855970319054

>  <Real charge>  (6) 
0

>  <Mult>  (6) 
1

$$$$
