mol_403 40
     RDKit          3D

 13 13  0  0  0  0  0  0  0  0999 V2000
    2.5218   -0.3918    0.0964 O   0  0  0  0  0  0  0  0  0  0  0  0
    1.1694   -0.1499    0.0448 C   0  0  0  0  0  0  0  0  0  0  0  0
    0.2632   -1.2167    0.0046 C   0  0  0  0  0  0  0  0  0  0  0  0
    0.9060   -2.8296    0.0222 Cl  0  0  0  0  0  0  0  0  0  0  0  0
   -1.1154   -0.9649   -0.0479 C   0  0  0  0  0  0  0  0  0  0  0  0
   -2.2354   -2.2954   -0.0977 Cl  0  0  0  0  0  0  0  0  0  0  0  0
   -1.5804    0.3651   -0.0598 C   0  0  0  0  0  0  0  0  0  0  0  0
   -3.2925    0.6845   -0.1250 Cl  0  0  0  0  0  0  0  0  0  0  0  0
   -0.6648    1.4369   -0.0192 C   0  0  0  0  0  0  0  0  0  0  0  0
   -1.2366    3.0814   -0.0339 Cl  0  0  0  0  0  0  0  0  0  0  0  0
    0.7141    1.1750    0.0332 C   0  0  0  0  0  0  0  0  0  0  0  0
    1.8789    2.4621    0.0846 Cl  0  0  0  0  0  0  0  0  0  0  0  0
    2.6715   -1.3567    0.0977 H   0  0  0  0  0  0  0  0  0  0  0  0
  1  2  1  0
  2  3  2  0
  3  4  1  0
  3  5  1  0
  5  6  1  0
  5  7  2  0
  7  8  1  0
  7  9  1  0
  9 10  1  0
  9 11  2  0
 11 12  1  0
 11  2  1  0
  1 13  1  0
M  END
>  <Energy>  (1) 
43.11851737471132

>  <Real charge>  (1) 
0

>  <Mult>  (1) 
1

$$$$
