mol_972 235
     RDKit          3D

 19 19  0  0  0  0  0  0  0  0999 V2000
   -0.0893   -1.1521   -2.1318 O   0  0  0  0  0  0  0  0  0  0  0  0
    0.3018   -0.4984   -1.1692 C   0  0  0  0  0  0  0  0  0  0  0  0
    1.6001   -0.0696   -1.1003 N   0  0  0  0  0  0  0  0  0  0  0  0
    2.2643    0.0942    0.0764 C   0  0  0  0  0  0  0  0  0  0  0  0
    3.4850   -0.0070    0.1406 O   0  0  0  0  0  0  0  0  0  0  0  0
    1.5083    0.2770    1.1934 N   0  0  0  0  0  0  0  0  0  0  0  0
    0.2036   -0.1277    1.2840 C   0  0  0  0  0  0  0  0  0  0  0  0
   -0.2693   -0.4728    2.3630 O   0  0  0  0  0  0  0  0  0  0  0  0
   -0.5832   -0.0679   -0.0131 C   0  0  0  0  0  0  0  0  0  0  0  0
   -1.0072    1.3904   -0.2504 C   0  0  0  0  0  0  0  0  0  0  0  0
   -1.8280   -0.9569    0.0714 C   0  0  0  0  0  0  0  0  0  0  0  0
    2.1877   -0.3688   -1.8677 H   0  0  0  0  0  0  0  0  0  0  0  0
    2.0306    0.2245    2.0584 H   0  0  0  0  0  0  0  0  0  0  0  0
   -1.5698    1.4900   -1.1860 H   0  0  0  0  0  0  0  0  0  0  0  0
   -0.1454    2.0645   -0.3178 H   0  0  0  0  0  0  0  0  0  0  0  0
   -1.6400    1.7549    0.5671 H   0  0  0  0  0  0  0  0  0  0  0  0
   -2.4143   -0.9173   -0.8537 H   0  0  0  0  0  0  0  0  0  0  0  0
   -2.4843   -0.6531    0.8949 H   0  0  0  0  0  0  0  0  0  0  0  0
   -1.5507   -2.0040    0.2408 H   0  0  0  0  0  0  0  0  0  0  0  0
  1  2  2  0
  2  3  1  0
  3  4  1  0
  4  5  2  0
  4  6  1  0
  6  7  1  0
  7  8  2  0
  7  9  1  0
  9 10  1  0
  9 11  1  0
  9  2  1  0
  3 12  1  0
  6 13  1  0
 10 14  1  0
 10 15  1  0
 10 16  1  0
 11 17  1  0
 11 18  1  0
 11 19  1  0
M  END
>  <Energy>  (1) 
-129.45408811070422

>  <Real charge>  (1) 
0

>  <Mult>  (1) 
1

$$$$
