mol_1126 249
     RDKit          3D

 27 26  0  0  0  0  0  0  0  0999 V2000
    4.0813   -0.7315   -0.0793 C   0  0  0  0  0  0  0  0  0  0  0  0
    3.2777    0.5271    0.1920 C   0  0  0  0  0  0  0  0  0  0  0  0
    1.7567    0.2068    1.1455 S   0  0  0  0  0  0  0  0  0  0  0  0
    0.8166   -0.8602   -0.0084 C   0  0  0  0  0  0  0  0  0  0  0  0
    0.5288   -0.2831   -1.3958 C   0  0  0  0  0  0  0  0  0  0  0  0
   -0.3692    1.2959   -1.4171 S   0  0  0  0  0  0  0  0  0  0  0  0
   -2.2399    0.8820   -0.5376 P   0  0  0  0  0  5  0  0  0  0  0  0
   -3.7294    2.0798   -0.9305 S   0  0  0  0  0  0  0  0  0  0  0  0
   -1.9895    0.6738    1.0548 O   0  0  0  0  0  0  0  0  0  0  0  0
   -1.6639    1.7994    1.8483 C   0  0  0  0  0  0  0  0  0  0  0  0
   -2.5558   -0.6630   -0.9483 O   0  0  0  0  0  0  0  0  0  0  0  0
   -3.6889   -1.3053   -0.3948 C   0  0  0  0  0  0  0  0  0  0  0  0
    3.5557   -1.4160   -0.7513 H   0  0  0  0  0  0  0  0  0  0  0  0
    5.0281   -0.4680   -0.5629 H   0  0  0  0  0  0  0  0  0  0  0  0
    4.3206   -1.2640    0.8472 H   0  0  0  0  0  0  0  0  0  0  0  0
    3.0346    1.0456   -0.7396 H   0  0  0  0  0  0  0  0  0  0  0  0
    3.8869    1.2163    0.7863 H   0  0  0  0  0  0  0  0  0  0  0  0
    1.3585   -1.8058   -0.1141 H   0  0  0  0  0  0  0  0  0  0  0  0
   -0.1237   -1.1172    0.4894 H   0  0  0  0  0  0  0  0  0  0  0  0
    1.4613   -0.1459   -1.9520 H   0  0  0  0  0  0  0  0  0  0  0  0
   -0.0598   -1.0090   -1.9670 H   0  0  0  0  0  0  0  0  0  0  0  0
   -1.1853    1.4504    2.7668 H   0  0  0  0  0  0  0  0  0  0  0  0
   -0.9764    2.4702    1.3272 H   0  0  0  0  0  0  0  0  0  0  0  0
   -2.5761    2.3391    2.1148 H   0  0  0  0  0  0  0  0  0  0  0  0
   -3.8011   -1.0721    0.6671 H   0  0  0  0  0  0  0  0  0  0  0  0
   -3.5595   -2.3855   -0.5012 H   0  0  0  0  0  0  0  0  0  0  0  0
   -4.5886   -1.0086   -0.9396 H   0  0  0  0  0  0  0  0  0  0  0  0
  1  2  1  0
  2  3  1  0
  3  4  1  0
  4  5  1  0
  5  6  1  0
  6  7  1  0
  7  8  2  0
  7  9  1  0
  9 10  1  0
  7 11  1  0
 11 12  1  0
  1 13  1  0
  1 14  1  0
  1 15  1  0
  2 16  1  0
  2 17  1  0
  4 18  1  0
  4 19  1  0
  5 20  1  0
  5 21  1  0
 10 22  1  0
 10 23  1  0
 10 24  1  0
 12 25  1  0
 12 26  1  0
 12 27  1  0
M  END
>  <Energy>  (1) 
-65.66662980751593

>  <Real charge>  (1) 
0

>  <Mult>  (1) 
1

$$$$
mol_1126 319
     RDKit          3D

 27 26  0  0  0  0  0  0  0  0999 V2000
    2.9299    1.5915   -0.6169 C   0  0  0  0  0  0  0  0  0  0  0  0
    3.5165    0.4553    0.2008 C   0  0  0  0  0  0  0  0  0  0  0  0
    2.2459   -0.4337    1.1568 S   0  0  0  0  0  0  0  0  0  0  0  0
    1.4400   -1.3603   -0.1955 C   0  0  0  0  0  0  0  0  0  0  0  0
    0.3811   -2.3458    0.3060 C   0  0  0  0  0  0  0  0  0  0  0  0
   -1.0667   -1.6007    1.1208 S   0  0  0  0  0  0  0  0  0  0  0  0
   -1.8840   -0.2666   -0.2925 P   0  0  0  0  0  5  0  0  0  0  0  0
   -2.1590   -0.9030   -2.1163 S   0  0  0  0  0  0  0  0  0  0  0  0
   -3.2363    0.3607    0.3599 O   0  0  0  0  0  0  0  0  0  0  0  0
   -4.3747   -0.4664    0.5027 C   0  0  0  0  0  0  0  0  0  0  0  0
   -0.9454    1.0619   -0.2981 O   0  0  0  0  0  0  0  0  0  0  0  0
   -0.8994    1.8840    0.8515 C   0  0  0  0  0  0  0  0  0  0  0  0
    2.4065    2.3133    0.0186 H   0  0  0  0  0  0  0  0  0  0  0  0
    3.7330    2.1288   -1.1325 H   0  0  0  0  0  0  0  0  0  0  0  0
    2.2355    1.2321   -1.3820 H   0  0  0  0  0  0  0  0  0  0  0  0
    4.2404    0.8619    0.9145 H   0  0  0  0  0  0  0  0  0  0  0  0
    4.0538   -0.2499   -0.4410 H   0  0  0  0  0  0  0  0  0  0  0  0
    2.2170   -1.9297   -0.7173 H   0  0  0  0  0  0  0  0  0  0  0  0
    1.0069   -0.6623   -0.9152 H   0  0  0  0  0  0  0  0  0  0  0  0
    0.0142   -2.9341   -0.5416 H   0  0  0  0  0  0  0  0  0  0  0  0
    0.8306   -3.0578    1.0073 H   0  0  0  0  0  0  0  0  0  0  0  0
   -4.9249   -0.5047   -0.4408 H   0  0  0  0  0  0  0  0  0  0  0  0
   -4.0976   -1.4774    0.8114 H   0  0  0  0  0  0  0  0  0  0  0  0
   -5.0245   -0.0334    1.2677 H   0  0  0  0  0  0  0  0  0  0  0  0
   -0.7916    1.2917    1.7626 H   0  0  0  0  0  0  0  0  0  0  0  0
   -0.0403    2.5539    0.7662 H   0  0  0  0  0  0  0  0  0  0  0  0
   -1.8069    2.4907    0.9093 H   0  0  0  0  0  0  0  0  0  0  0  0
  1  2  1  0
  2  3  1  0
  3  4  1  0
  4  5  1  0
  5  6  1  0
  6  7  1  0
  7  8  2  0
  7  9  1  0
  9 10  1  0
  7 11  1  0
 11 12  1  0
  1 13  1  0
  1 14  1  0
  1 15  1  0
  2 16  1  0
  2 17  1  0
  4 18  1  0
  4 19  1  0
  5 20  1  0
  5 21  1  0
 10 22  1  0
 10 23  1  0
 10 24  1  0
 12 25  1  0
 12 26  1  0
 12 27  1  0
M  END
>  <Energy>  (2) 
-65.08953168229469

>  <Real charge>  (2) 
0

>  <Mult>  (2) 
1

$$$$
mol_1126 103
     RDKit          3D

 27 26  0  0  0  0  0  0  0  0999 V2000
    4.2264   -0.6023    0.5337 C   0  0  0  0  0  0  0  0  0  0  0  0
    3.1354   -0.9402   -0.4658 C   0  0  0  0  0  0  0  0  0  0  0  0
    1.6146   -1.5634    0.3238 S   0  0  0  0  0  0  0  0  0  0  0  0
    1.0912   -0.1129    1.3120 C   0  0  0  0  0  0  0  0  0  0  0  0
    0.8404    1.1824    0.5372 C   0  0  0  0  0  0  0  0  0  0  0  0
   -0.4133    1.0748   -0.7765 S   0  0  0  0  0  0  0  0  0  0  0  0
   -2.2206    0.6386    0.2236 P   0  0  0  0  0  5  0  0  0  0  0  0
   -2.7388    1.7742    1.7225 S   0  0  0  0  0  0  0  0  0  0  0  0
   -2.1501   -0.9151    0.6939 O   0  0  0  0  0  0  0  0  0  0  0  0
   -2.1508   -1.9402   -0.2797 C   0  0  0  0  0  0  0  0  0  0  0  0
   -3.3838    0.5269   -0.9089 O   0  0  0  0  0  0  0  0  0  0  0  0
   -3.8238    1.7044   -1.5571 C   0  0  0  0  0  0  0  0  0  0  0  0
    3.9570    0.2529    1.1601 H   0  0  0  0  0  0  0  0  0  0  0  0
    4.4563   -1.4541    1.1823 H   0  0  0  0  0  0  0  0  0  0  0  0
    5.1453   -0.3350    0.0009 H   0  0  0  0  0  0  0  0  0  0  0  0
    2.9035   -0.0793   -1.0990 H   0  0  0  0  0  0  0  0  0  0  0  0
    3.4960   -1.7320   -1.1309 H   0  0  0  0  0  0  0  0  0  0  0  0
    1.8476    0.0648    2.0836 H   0  0  0  0  0  0  0  0  0  0  0  0
    0.1849   -0.4041    1.8523 H   0  0  0  0  0  0  0  0  0  0  0  0
    1.7695    1.5429    0.0849 H   0  0  0  0  0  0  0  0  0  0  0  0
    0.5247    1.9611    1.2393 H   0  0  0  0  0  0  0  0  0  0  0  0
   -1.5243   -1.6815   -1.1362 H   0  0  0  0  0  0  0  0  0  0  0  0
   -1.7625   -2.8543    0.1765 H   0  0  0  0  0  0  0  0  0  0  0  0
   -3.1744   -2.1258   -0.6156 H   0  0  0  0  0  0  0  0  0  0  0  0
   -2.9908    2.3803   -1.7656 H   0  0  0  0  0  0  0  0  0  0  0  0
   -4.5672    2.2122   -0.9374 H   0  0  0  0  0  0  0  0  0  0  0  0
   -4.2922    1.4247   -2.5043 H   0  0  0  0  0  0  0  0  0  0  0  0
  1  2  1  0
  2  3  1  0
  3  4  1  0
  4  5  1  0
  5  6  1  0
  6  7  1  0
  7  8  2  0
  7  9  1  0
  9 10  1  0
  7 11  1  0
 11 12  1  0
  1 13  1  0
  1 14  1  0
  1 15  1  0
  2 16  1  0
  2 17  1  0
  4 18  1  0
  4 19  1  0
  5 20  1  0
  5 21  1  0
 10 22  1  0
 10 23  1  0
 10 24  1  0
 12 25  1  0
 12 26  1  0
 12 27  1  0
M  END
>  <Energy>  (3) 
-65.00739700839979

>  <Real charge>  (3) 
0

>  <Mult>  (3) 
1

$$$$
mol_1126 10
     RDKit          3D

 27 26  0  0  0  0  0  0  0  0999 V2000
    4.0939    0.6248   -0.3685 C   0  0  0  0  0  0  0  0  0  0  0  0
    2.7677    1.3458   -0.2113 C   0  0  0  0  0  0  0  0  0  0  0  0
    1.8864    0.8564    1.3066 S   0  0  0  0  0  0  0  0  0  0  0  0
    1.4447   -0.8599    0.8642 C   0  0  0  0  0  0  0  0  0  0  0  0
    0.4197   -1.4774    1.8192 C   0  0  0  0  0  0  0  0  0  0  0  0
   -1.2192   -0.6831    1.8383 S   0  0  0  0  0  0  0  0  0  0  0  0
   -1.8925   -0.7295   -0.1589 P   0  0  0  0  0  5  0  0  0  0  0  0
   -1.7863   -2.4159   -1.1338 S   0  0  0  0  0  0  0  0  0  0  0  0
   -3.3875   -0.0874   -0.1819 O   0  0  0  0  0  0  0  0  0  0  0  0
   -4.4563   -0.8221    0.3824 C   0  0  0  0  0  0  0  0  0  0  0  0
   -1.0871    0.4335   -0.9627 O   0  0  0  0  0  0  0  0  0  0  0  0
   -1.3234    1.7902   -0.6413 C   0  0  0  0  0  0  0  0  0  0  0  0
    4.7443    0.7860    0.4977 H   0  0  0  0  0  0  0  0  0  0  0  0
    4.6189    1.0046   -1.2515 H   0  0  0  0  0  0  0  0  0  0  0  0
    3.9596   -0.4519   -0.5092 H   0  0  0  0  0  0  0  0  0  0  0  0
    2.9474    2.4241   -0.1527 H   0  0  0  0  0  0  0  0  0  0  0  0
    2.1244    1.1705   -1.0793 H   0  0  0  0  0  0  0  0  0  0  0  0
    2.3587   -1.4611    0.9091 H   0  0  0  0  0  0  0  0  0  0  0  0
    1.0823   -0.8925   -0.1666 H   0  0  0  0  0  0  0  0  0  0  0  0
    0.2718   -2.5284    1.5496 H   0  0  0  0  0  0  0  0  0  0  0  0
    0.8072   -1.4702    2.8442 H   0  0  0  0  0  0  0  0  0  0  0  0
   -4.1502   -1.3316    1.2994 H   0  0  0  0  0  0  0  0  0  0  0  0
   -5.2660   -0.1281    0.6221 H   0  0  0  0  0  0  0  0  0  0  0  0
   -4.8263   -1.5524   -0.3417 H   0  0  0  0  0  0  0  0  0  0  0  0
   -1.3771    1.9432    0.4388 H   0  0  0  0  0  0  0  0  0  0  0  0
   -2.2541    2.1226   -1.1084 H   0  0  0  0  0  0  0  0  0  0  0  0
   -0.5009    2.3900   -1.0393 H   0  0  0  0  0  0  0  0  0  0  0  0
  1  2  1  0
  2  3  1  0
  3  4  1  0
  4  5  1  0
  5  6  1  0
  6  7  1  0
  7  8  2  0
  7  9  1  0
  9 10  1  0
  7 11  1  0
 11 12  1  0
  1 13  1  0
  1 14  1  0
  1 15  1  0
  2 16  1  0
  2 17  1  0
  4 18  1  0
  4 19  1  0
  5 20  1  0
  5 21  1  0
 10 22  1  0
 10 23  1  0
 10 24  1  0
 12 25  1  0
 12 26  1  0
 12 27  1  0
M  END
>  <Energy>  (4) 
-64.96916131385218

>  <Real charge>  (4) 
0

>  <Mult>  (4) 
1

$$$$
mol_1126 515
     RDKit          3D

 27 26  0  0  0  0  0  0  0  0999 V2000
    3.1462   -1.2883    0.7439 C   0  0  0  0  0  0  0  0  0  0  0  0
    3.4453    0.1540    0.3757 C   0  0  0  0  0  0  0  0  0  0  0  0
    3.2402    0.4680   -1.4105 S   0  0  0  0  0  0  0  0  0  0  0  0
    1.4175    0.4685   -1.5507 C   0  0  0  0  0  0  0  0  0  0  0  0
    0.8131    1.7657   -1.0213 C   0  0  0  0  0  0  0  0  0  0  0  0
   -0.9981    1.7859   -1.1805 S   0  0  0  0  0  0  0  0  0  0  0  0
   -1.6828    0.2833    0.1332 P   0  0  0  0  0  5  0  0  0  0  0  0
   -0.9777    0.2411    1.9534 S   0  0  0  0  0  0  0  0  0  0  0  0
   -1.4224   -1.1090   -0.6676 O   0  0  0  0  0  0  0  0  0  0  0  0
   -1.9353   -2.3183   -0.1422 C   0  0  0  0  0  0  0  0  0  0  0  0
   -3.3073    0.3165    0.0721 O   0  0  0  0  0  0  0  0  0  0  0  0
   -3.9928    1.4002    0.6690 C   0  0  0  0  0  0  0  0  0  0  0  0
    2.0973   -1.5481    0.5757 H   0  0  0  0  0  0  0  0  0  0  0  0
    3.3536   -1.4485    1.8073 H   0  0  0  0  0  0  0  0  0  0  0  0
    3.7729   -1.9851    0.1772 H   0  0  0  0  0  0  0  0  0  0  0  0
    2.8256    0.8415    0.9574 H   0  0  0  0  0  0  0  0  0  0  0  0
    4.4886    0.3755    0.6239 H   0  0  0  0  0  0  0  0  0  0  0  0
    1.1827    0.3561   -2.6150 H   0  0  0  0  0  0  0  0  0  0  0  0
    1.0251   -0.4114   -1.0384 H   0  0  0  0  0  0  0  0  0  0  0  0
    1.0607    1.9314    0.0303 H   0  0  0  0  0  0  0  0  0  0  0  0
    1.1974    2.6210   -1.5878 H   0  0  0  0  0  0  0  0  0  0  0  0
   -2.9558   -2.1917    0.2280 H   0  0  0  0  0  0  0  0  0  0  0  0
   -1.2888   -2.6789    0.6618 H   0  0  0  0  0  0  0  0  0  0  0  0
   -1.9451   -3.0652   -0.9403 H   0  0  0  0  0  0  0  0  0  0  0  0
   -4.0850    1.2318    1.7449 H   0  0  0  0  0  0  0  0  0  0  0  0
   -4.9956    1.4566    0.2378 H   0  0  0  0  0  0  0  0  0  0  0  0
   -3.4795    2.3472    0.4850 H   0  0  0  0  0  0  0  0  0  0  0  0
  1  2  1  0
  2  3  1  0
  3  4  1  0
  4  5  1  0
  5  6  1  0
  6  7  1  0
  7  8  2  0
  7  9  1  0
  9 10  1  0
  7 11  1  0
 11 12  1  0
  1 13  1  0
  1 14  1  0
  1 15  1  0
  2 16  1  0
  2 17  1  0
  4 18  1  0
  4 19  1  0
  5 20  1  0
  5 21  1  0
 10 22  1  0
 10 23  1  0
 10 24  1  0
 12 25  1  0
 12 26  1  0
 12 27  1  0
M  END
>  <Energy>  (5) 
-64.89801025808458

>  <Real charge>  (5) 
0

>  <Mult>  (5) 
1

$$$$
mol_1126 545
     RDKit          3D

 27 26  0  0  0  0  0  0  0  0999 V2000
    3.5541   -2.6948    0.4166 C   0  0  0  0  0  0  0  0  0  0  0  0
    3.0744   -1.2640    0.2467 C   0  0  0  0  0  0  0  0  0  0  0  0
    1.5868   -1.2314   -0.8011 S   0  0  0  0  0  0  0  0  0  0  0  0
    1.4139    0.5735   -1.0437 C   0  0  0  0  0  0  0  0  0  0  0  0
    1.1310    1.3906    0.2188 C   0  0  0  0  0  0  0  0  0  0  0  0
   -0.3818    0.9347    1.1206 S   0  0  0  0  0  0  0  0  0  0  0  0
   -1.9631    1.3374   -0.2186 P   0  0  0  0  0  5  0  0  0  0  0  0
   -2.0353    3.0999   -1.0513 S   0  0  0  0  0  0  0  0  0  0  0  0
   -1.9395    0.1785   -1.3573 O   0  0  0  0  0  0  0  0  0  0  0  0
   -2.2440   -1.1557   -1.0023 C   0  0  0  0  0  0  0  0  0  0  0  0
   -3.3489    0.9453    0.5389 O   0  0  0  0  0  0  0  0  0  0  0  0
   -3.8053    1.7632    1.5986 C   0  0  0  0  0  0  0  0  0  0  0  0
    4.4492   -2.7144    1.0473 H   0  0  0  0  0  0  0  0  0  0  0  0
    3.8175   -3.1479   -0.5452 H   0  0  0  0  0  0  0  0  0  0  0  0
    2.7952   -3.3190    0.9005 H   0  0  0  0  0  0  0  0  0  0  0  0
    3.8622   -0.6648   -0.2198 H   0  0  0  0  0  0  0  0  0  0  0  0
    2.8408   -0.8399    1.2273 H   0  0  0  0  0  0  0  0  0  0  0  0
    2.3370    0.9366   -1.5093 H   0  0  0  0  0  0  0  0  0  0  0  0
    0.6212    0.7318   -1.7813 H   0  0  0  0  0  0  0  0  0  0  0  0
    1.0542    2.4487   -0.0518 H   0  0  0  0  0  0  0  0  0  0  0  0
    1.9708    1.3160    0.9169 H   0  0  0  0  0  0  0  0  0  0  0  0
   -1.7924   -1.4303   -0.0464 H   0  0  0  0  0  0  0  0  0  0  0  0
   -1.8553   -1.8200   -1.7783 H   0  0  0  0  0  0  0  0  0  0  0  0
   -3.3284   -1.2817   -0.9464 H   0  0  0  0  0  0  0  0  0  0  0  0
   -4.4922    1.1792    2.2166 H   0  0  0  0  0  0  0  0  0  0  0  0
   -2.9771    2.1048    2.2244 H   0  0  0  0  0  0  0  0  0  0  0  0
   -4.3451    2.6238    1.1957 H   0  0  0  0  0  0  0  0  0  0  0  0
  1  2  1  0
  2  3  1  0
  3  4  1  0
  4  5  1  0
  5  6  1  0
  6  7  1  0
  7  8  2  0
  7  9  1  0
  9 10  1  0
  7 11  1  0
 11 12  1  0
  1 13  1  0
  1 14  1  0
  1 15  1  0
  2 16  1  0
  2 17  1  0
  4 18  1  0
  4 19  1  0
  5 20  1  0
  5 21  1  0
 10 22  1  0
 10 23  1  0
 10 24  1  0
 12 25  1  0
 12 26  1  0
 12 27  1  0
M  END
>  <Energy>  (6) 
-64.75424856737995

>  <Real charge>  (6) 
0

>  <Mult>  (6) 
1

$$$$
