mol_577 400
     RDKit          3D

 54 57  0  0  0  0  0  0  0  0999 V2000
    1.6226   -2.3812    0.4938 C   0  0  0  0  0  0  0  0  0  0  0  0
    1.6980   -0.8901    0.1102 C   0  0  0  0  0  0  0  0  0  0  0  0
    1.0563   -0.6764   -1.2759 C   0  0  0  0  0  0  0  0  0  0  0  0
   -0.4712   -0.8256   -1.2999 C   0  0  0  0  0  0  0  0  0  0  0  0
   -0.8737   -0.5665   -2.6407 O   0  0  0  0  0  0  0  0  0  0  0  0
   -1.1639    0.1478   -0.3040 C   0  0  0  0  0  0  0  0  0  0  0  0
   -0.5593   -0.0937    1.1172 C   0  0  0  0  0  0  0  0  0  0  0  0
   -1.1751    0.8318    2.1783 C   0  0  0  0  0  0  0  0  0  0  0  0
   -2.6883    0.6913    2.2283 C   0  0  0  0  0  0  0  0  0  0  0  0
   -3.2596    0.9803    0.8666 C   0  0  0  0  0  0  0  0  0  0  0  0
   -4.1224    2.0015    0.7142 C   0  0  0  0  0  0  0  0  0  0  0  0
   -4.6622    2.3805   -0.6050 C   0  0  0  0  0  0  0  0  0  0  0  0
   -5.4542    3.3059   -0.7287 O   0  0  0  0  0  0  0  0  0  0  0  0
   -4.2013    1.6010   -1.7649 C   0  0  0  0  0  0  0  0  0  0  0  0
   -3.3457    0.5816   -1.6134 C   0  0  0  0  0  0  0  0  0  0  0  0
   -2.7530    0.0996   -0.2912 C   0  0  0  0  0  0  0  0  0  0  0  0
   -3.2838   -1.3386   -0.0912 C   0  0  0  0  0  0  0  0  0  0  0  0
    0.9821   -0.0124    1.1621 C   0  0  0  0  0  0  0  0  0  0  0  0
    1.5795    1.3906    0.9552 C   0  0  0  0  0  0  0  0  0  0  0  0
    2.9683    1.1899    0.3318 C   0  0  0  0  0  0  0  0  0  0  0  0
    3.1513   -0.3255    0.1891 C   0  0  0  0  0  0  0  0  0  0  0  0
    3.7735   -0.7664    1.4122 O   0  0  0  0  0  0  0  0  0  0  0  0
    4.0779   -0.7999   -0.9443 C   0  0  0  0  0  0  0  0  0  0  0  0
    4.6384   -1.9027   -0.8641 O   0  0  0  0  0  0  0  0  0  0  0  0
    4.3262    0.0970   -2.1483 C   0  0  0  0  0  0  0  0  0  0  0  0
    4.9701   -0.6146   -3.1967 O   0  0  0  0  0  0  0  0  0  0  0  0
    2.1988   -2.9958   -0.2059 H   0  0  0  0  0  0  0  0  0  0  0  0
    2.0139   -2.5652    1.4999 H   0  0  0  0  0  0  0  0  0  0  0  0
    0.5953   -2.7573    0.4872 H   0  0  0  0  0  0  0  0  0  0  0  0
    1.4958   -1.3723   -2.0033 H   0  0  0  0  0  0  0  0  0  0  0  0
    1.2931    0.3215   -1.6662 H   0  0  0  0  0  0  0  0  0  0  0  0
   -0.7490   -1.8592   -1.0717 H   0  0  0  0  0  0  0  0  0  0  0  0
   -0.4697   -1.2422   -3.2138 H   0  0  0  0  0  0  0  0  0  0  0  0
   -0.9015    1.1691   -0.6189 H   0  0  0  0  0  0  0  0  0  0  0  0
   -0.8179   -1.1202    1.4106 H   0  0  0  0  0  0  0  0  0  0  0  0
   -0.9154    1.8776    1.9711 H   0  0  0  0  0  0  0  0  0  0  0  0
   -0.7625    0.5923    3.1659 H   0  0  0  0  0  0  0  0  0  0  0  0
   -3.0843    1.3789    2.9856 H   0  0  0  0  0  0  0  0  0  0  0  0
   -2.9719   -0.3164    2.5518 H   0  0  0  0  0  0  0  0  0  0  0  0
   -4.4565    2.6183    1.5408 H   0  0  0  0  0  0  0  0  0  0  0  0
   -4.5991    1.8873   -2.7306 H   0  0  0  0  0  0  0  0  0  0  0  0
   -3.0804    0.0321   -2.5126 H   0  0  0  0  0  0  0  0  0  0  0  0
   -2.8537   -1.8270    0.7884 H   0  0  0  0  0  0  0  0  0  0  0  0
   -3.0637   -1.9773   -0.9546 H   0  0  0  0  0  0  0  0  0  0  0  0
   -4.3738   -1.3452    0.0387 H   0  0  0  0  0  0  0  0  0  0  0  0
    1.2925   -0.3443    2.1646 H   0  0  0  0  0  0  0  0  0  0  0  0
    1.6544    1.9253    1.9087 H   0  0  0  0  0  0  0  0  0  0  0  0
    0.9692    2.0090    0.2892 H   0  0  0  0  0  0  0  0  0  0  0  0
    3.7385    1.6361    0.9715 H   0  0  0  0  0  0  0  0  0  0  0  0
    2.9975    1.7198   -0.6247 H   0  0  0  0  0  0  0  0  0  0  0  0
    4.1412   -1.6567    1.2346 H   0  0  0  0  0  0  0  0  0  0  0  0
    3.3851    0.4790   -2.5446 H   0  0  0  0  0  0  0  0  0  0  0  0
    4.9710    0.9268   -1.8475 H   0  0  0  0  0  0  0  0  0  0  0  0
    5.5225   -1.2994   -2.7681 H   0  0  0  0  0  0  0  0  0  0  0  0
  1  2  1  0
  2  3  1  0
  3  4  1  0
  4  5  1  0
  4  6  1  0
  6  7  1  0
  7  8  1  0
  8  9  1  0
  9 10  1  0
 10 11  2  0
 11 12  1  0
 12 13  2  0
 12 14  1  0
 14 15  2  0
 15 16  1  0
 16 17  1  0
  7 18  1  0
 18 19  1  0
 19 20  1  0
 20 21  1  0
 21 22  1  0
 21 23  1  0
 23 24  2  0
 23 25  1  0
 25 26  1  0
 21  2  1  0
 18  2  1  0
 16  6  1  0
 16 10  1  0
  1 27  1  0
  1 28  1  0
  1 29  1  0
  3 30  1  0
  3 31  1  0
  4 32  1  0
  5 33  1  0
  6 34  1  0
  7 35  1  0
  8 36  1  0
  8 37  1  0
  9 38  1  0
  9 39  1  0
 11 40  1  0
 14 41  1  0
 15 42  1  0
 17 43  1  0
 17 44  1  0
 17 45  1  0
 18 46  1  0
 19 47  1  0
 19 48  1  0
 20 49  1  0
 20 50  1  0
 22 51  1  0
 25 52  1  0
 25 53  1  0
 26 54  1  0
M  END
>  <Energy>  (1) 
126.33694068667725

>  <Real charge>  (1) 
0

>  <Mult>  (1) 
1

$$$$
mol_577 619
     RDKit          3D

 54 57  0  0  0  0  0  0  0  0999 V2000
    1.8301   -1.4971   -1.7510 C   0  0  0  0  0  0  0  0  0  0  0  0
    1.7533   -0.6823   -0.4452 C   0  0  0  0  0  0  0  0  0  0  0  0
    1.3457    0.7720   -0.7591 C   0  0  0  0  0  0  0  0  0  0  0  0
   -0.1125    0.9411   -1.2073 C   0  0  0  0  0  0  0  0  0  0  0  0
   -0.2998    2.3378   -1.4187 O   0  0  0  0  0  0  0  0  0  0  0  0
   -1.1220    0.3712   -0.1747 C   0  0  0  0  0  0  0  0  0  0  0  0
   -0.7396   -1.1098    0.1448 C   0  0  0  0  0  0  0  0  0  0  0  0
   -1.6678   -1.7278    1.2043 C   0  0  0  0  0  0  0  0  0  0  0  0
   -3.1306   -1.6368    0.7941 C   0  0  0  0  0  0  0  0  0  0  0  0
   -3.4851   -0.2007    0.5124 C   0  0  0  0  0  0  0  0  0  0  0  0
   -4.4417    0.4038    1.2403 C   0  0  0  0  0  0  0  0  0  0  0  0
   -4.7803    1.8283    1.0589 C   0  0  0  0  0  0  0  0  0  0  0  0
   -5.6400    2.3721    1.7397 O   0  0  0  0  0  0  0  0  0  0  0  0
   -4.0347    2.5680    0.0270 C   0  0  0  0  0  0  0  0  0  0  0  0
   -3.0838    1.9662   -0.6995 C   0  0  0  0  0  0  0  0  0  0  0  0
   -2.6544    0.5070   -0.5729 C   0  0  0  0  0  0  0  0  0  0  0  0
   -2.9619   -0.1361   -1.9451 C   0  0  0  0  0  0  0  0  0  0  0  0
    0.7391   -1.3074    0.5403 C   0  0  0  0  0  0  0  0  0  0  0  0
    1.1456   -0.7365    1.9100 C   0  0  0  0  0  0  0  0  0  0  0  0
    2.6412   -0.3981    1.8165 C   0  0  0  0  0  0  0  0  0  0  0  0
    3.0689   -0.7677    0.3905 C   0  0  0  0  0  0  0  0  0  0  0  0
    3.5105   -2.1386    0.4539 O   0  0  0  0  0  0  0  0  0  0  0  0
    4.2522    0.0223   -0.1968 C   0  0  0  0  0  0  0  0  0  0  0  0
    4.9512   -0.4803   -1.0884 O   0  0  0  0  0  0  0  0  0  0  0  0
    4.5819    1.4068    0.3417 C   0  0  0  0  0  0  0  0  0  0  0  0
    5.5342    2.0709   -0.4771 O   0  0  0  0  0  0  0  0  0  0  0  0
    2.0560   -2.5519   -1.5623 H   0  0  0  0  0  0  0  0  0  0  0  0
    2.6073   -1.1026   -2.4139 H   0  0  0  0  0  0  0  0  0  0  0  0
    0.8877   -1.4764   -2.3063 H   0  0  0  0  0  0  0  0  0  0  0  0
    2.0052    1.1904   -1.5315 H   0  0  0  0  0  0  0  0  0  0  0  0
    1.4990    1.4158    0.1160 H   0  0  0  0  0  0  0  0  0  0  0  0
   -0.2504    0.4560   -2.1778 H   0  0  0  0  0  0  0  0  0  0  0  0
   -0.2402    2.7910   -0.5592 H   0  0  0  0  0  0  0  0  0  0  0  0
   -0.9997    0.9593    0.7476 H   0  0  0  0  0  0  0  0  0  0  0  0
   -0.8837   -1.6911   -0.7757 H   0  0  0  0  0  0  0  0  0  0  0  0
   -1.4063   -2.7816    1.3596 H   0  0  0  0  0  0  0  0  0  0  0  0
   -1.5336   -1.2226    2.1691 H   0  0  0  0  0  0  0  0  0  0  0  0
   -3.7512   -2.0542    1.5965 H   0  0  0  0  0  0  0  0  0  0  0  0
   -3.3209   -2.2537   -0.0911 H   0  0  0  0  0  0  0  0  0  0  0  0
   -5.0037   -0.1070    2.0141 H   0  0  0  0  0  0  0  0  0  0  0  0
   -4.3132    3.6041   -0.1220 H   0  0  0  0  0  0  0  0  0  0  0  0
   -2.6147    2.5593   -1.4820 H   0  0  0  0  0  0  0  0  0  0  0  0
   -2.4779    0.4062   -2.7658 H   0  0  0  0  0  0  0  0  0  0  0  0
   -4.0400   -0.1302   -2.1522 H   0  0  0  0  0  0  0  0  0  0  0  0
   -2.6316   -1.1768   -2.0100 H   0  0  0  0  0  0  0  0  0  0  0  0
    0.9162   -2.3929    0.5841 H   0  0  0  0  0  0  0  0  0  0  0  0
    0.5839    0.1680    2.1653 H   0  0  0  0  0  0  0  0  0  0  0  0
    0.9600   -1.4652    2.7068 H   0  0  0  0  0  0  0  0  0  0  0  0
    2.7701    0.6641    2.0436 H   0  0  0  0  0  0  0  0  0  0  0  0
    3.2042   -0.9605    2.5703 H   0  0  0  0  0  0  0  0  0  0  0  0
    4.0312   -2.3025   -0.3596 H   0  0  0  0  0  0  0  0  0  0  0  0
    5.0039    1.3063    1.3451 H   0  0  0  0  0  0  0  0  0  0  0  0
    3.6870    2.0291    0.3731 H   0  0  0  0  0  0  0  0  0  0  0  0
    6.0559    1.3710   -0.9202 H   0  0  0  0  0  0  0  0  0  0  0  0
  1  2  1  0
  2  3  1  0
  3  4  1  0
  4  5  1  0
  4  6  1  0
  6  7  1  0
  7  8  1  0
  8  9  1  0
  9 10  1  0
 10 11  2  0
 11 12  1  0
 12 13  2  0
 12 14  1  0
 14 15  2  0
 15 16  1  0
 16 17  1  0
  7 18  1  0
 18 19  1  0
 19 20  1  0
 20 21  1  0
 21 22  1  0
 21 23  1  0
 23 24  2  0
 23 25  1  0
 25 26  1  0
 21  2  1  0
 18  2  1  0
 16  6  1  0
 16 10  1  0
  1 27  1  0
  1 28  1  0
  1 29  1  0
  3 30  1  0
  3 31  1  0
  4 32  1  0
  5 33  1  0
  6 34  1  0
  7 35  1  0
  8 36  1  0
  8 37  1  0
  9 38  1  0
  9 39  1  0
 11 40  1  0
 14 41  1  0
 15 42  1  0
 17 43  1  0
 17 44  1  0
 17 45  1  0
 18 46  1  0
 19 47  1  0
 19 48  1  0
 20 49  1  0
 20 50  1  0
 22 51  1  0
 25 52  1  0
 25 53  1  0
 26 54  1  0
M  END
>  <Energy>  (2) 
126.90394450335772

>  <Real charge>  (2) 
0

>  <Mult>  (2) 
1

$$$$
mol_577 324
     RDKit          3D

 54 57  0  0  0  0  0  0  0  0999 V2000
    1.6282    2.2698   -0.7052 C   0  0  0  0  0  0  0  0  0  0  0  0
    1.6567    0.8032   -0.2318 C   0  0  0  0  0  0  0  0  0  0  0  0
    1.0240   -0.1086   -1.3083 C   0  0  0  0  0  0  0  0  0  0  0  0
   -0.4995    0.0234   -1.4480 C   0  0  0  0  0  0  0  0  0  0  0  0
   -0.8935   -0.9171   -2.4425 O   0  0  0  0  0  0  0  0  0  0  0  0
   -1.2398   -0.2333   -0.1057 C   0  0  0  0  0  0  0  0  0  0  0  0
   -0.6481    0.7339    0.9693 C   0  0  0  0  0  0  0  0  0  0  0  0
   -1.3137    0.5584    2.3435 C   0  0  0  0  0  0  0  0  0  0  0  0
   -2.8211    0.7373    2.2589 C   0  0  0  0  0  0  0  0  0  0  0  0
   -3.3817   -0.2403    1.2622 C   0  0  0  0  0  0  0  0  0  0  0  0
   -4.2782   -1.1582    1.6678 C   0  0  0  0  0  0  0  0  0  0  0  0
   -4.8115   -2.1880    0.7565 C   0  0  0  0  0  0  0  0  0  0  0  0
   -5.6347   -3.0112    1.1357 O   0  0  0  0  0  0  0  0  0  0  0  0
   -4.3055   -2.1849   -0.6252 C   0  0  0  0  0  0  0  0  0  0  0  0
   -3.4163   -1.2688   -1.0306 C   0  0  0  0  0  0  0  0  0  0  0  0
   -2.8265   -0.1522   -0.1720 C   0  0  0  0  0  0  0  0  0  0  0  0
   -3.3095    1.1704   -0.8107 C   0  0  0  0  0  0  0  0  0  0  0  0
    0.8876    0.6485    1.1019 C   0  0  0  0  0  0  0  0  0  0  0  0
    1.4245   -0.6598    1.7053 C   0  0  0  0  0  0  0  0  0  0  0  0
    2.8112   -0.8840    1.0945 C   0  0  0  0  0  0  0  0  0  0  0  0
    3.0875    0.3280    0.1904 C   0  0  0  0  0  0  0  0  0  0  0  0
    3.7319    1.3127    1.0089 O   0  0  0  0  0  0  0  0  0  0  0  0
    4.0601   -0.0039   -0.9579 C   0  0  0  0  0  0  0  0  0  0  0  0
    3.9265    0.4551   -2.0970 O   0  0  0  0  0  0  0  0  0  0  0  0
    5.2759   -0.8657   -0.6253 C   0  0  0  0  0  0  0  0  0  0  0  0
    6.2126   -0.8833   -1.6954 O   0  0  0  0  0  0  0  0  0  0  0  0
    0.6205    2.5925   -0.9836 H   0  0  0  0  0  0  0  0  0  0  0  0
    1.9680    2.9579    0.0761 H   0  0  0  0  0  0  0  0  0  0  0  0
    2.2692    2.4165   -1.5801 H   0  0  0  0  0  0  0  0  0  0  0  0
    1.2567   -1.1641   -1.1162 H   0  0  0  0  0  0  0  0  0  0  0  0
    1.4741    0.0968   -2.2878 H   0  0  0  0  0  0  0  0  0  0  0  0
   -0.7490    1.0186   -1.8290 H   0  0  0  0  0  0  0  0  0  0  0  0
   -0.4204   -0.6991   -3.2654 H   0  0  0  0  0  0  0  0  0  0  0  0
   -1.0090   -1.2660    0.1956 H   0  0  0  0  0  0  0  0  0  0  0  0
   -0.8701    1.7594    0.6439 H   0  0  0  0  0  0  0  0  0  0  0  0
   -0.9073    1.2922    3.0503 H   0  0  0  0  0  0  0  0  0  0  0  0
   -1.0899   -0.4344    2.7537 H   0  0  0  0  0  0  0  0  0  0  0  0
   -3.2534    0.5888    3.2560 H   0  0  0  0  0  0  0  0  0  0  0  0
   -3.0724    1.7628    1.9662 H   0  0  0  0  0  0  0  0  0  0  0  0
   -4.6466   -1.2117    2.6859 H   0  0  0  0  0  0  0  0  0  0  0  0
   -4.6983   -2.9462   -1.2875 H   0  0  0  0  0  0  0  0  0  0  0  0
   -3.1174   -1.3101   -2.0746 H   0  0  0  0  0  0  0  0  0  0  0  0
   -2.8731    2.0522   -0.3320 H   0  0  0  0  0  0  0  0  0  0  0  0
   -4.4001    1.2718   -0.7378 H   0  0  0  0  0  0  0  0  0  0  0  0
   -3.0571    1.2237   -1.8763 H   0  0  0  0  0  0  0  0  0  0  0  0
    1.1979    1.4593    1.7787 H   0  0  0  0  0  0  0  0  0  0  0  0
    0.7862   -1.5207    1.4834 H   0  0  0  0  0  0  0  0  0  0  0  0
    1.4881   -0.5828    2.7966 H   0  0  0  0  0  0  0  0  0  0  0  0
    2.8017   -1.8218    0.5271 H   0  0  0  0  0  0  0  0  0  0  0  0
    3.5612   -0.9872    1.8873 H   0  0  0  0  0  0  0  0  0  0  0  0
    3.9237    2.0896    0.4518 H   0  0  0  0  0  0  0  0  0  0  0  0
    4.9547   -1.8933   -0.4413 H   0  0  0  0  0  0  0  0  0  0  0  0
    5.7792   -0.4655    0.2581 H   0  0  0  0  0  0  0  0  0  0  0  0
    5.7356   -0.5609   -2.4870 H   0  0  0  0  0  0  0  0  0  0  0  0
  1  2  1  0
  2  3  1  0
  3  4  1  0
  4  5  1  0
  4  6  1  0
  6  7  1  0
  7  8  1  0
  8  9  1  0
  9 10  1  0
 10 11  2  0
 11 12  1  0
 12 13  2  0
 12 14  1  0
 14 15  2  0
 15 16  1  0
 16 17  1  0
  7 18  1  0
 18 19  1  0
 19 20  1  0
 20 21  1  0
 21 22  1  0
 21 23  1  0
 23 24  2  0
 23 25  1  0
 25 26  1  0
 21  2  1  0
 18  2  1  0
 16  6  1  0
 16 10  1  0
  1 27  1  0
  1 28  1  0
  1 29  1  0
  3 30  1  0
  3 31  1  0
  4 32  1  0
  5 33  1  0
  6 34  1  0
  7 35  1  0
  8 36  1  0
  8 37  1  0
  9 38  1  0
  9 39  1  0
 11 40  1  0
 14 41  1  0
 15 42  1  0
 17 43  1  0
 17 44  1  0
 17 45  1  0
 18 46  1  0
 19 47  1  0
 19 48  1  0
 20 49  1  0
 20 50  1  0
 22 51  1  0
 25 52  1  0
 25 53  1  0
 26 54  1  0
M  END
>  <Energy>  (3) 
126.97801957080475

>  <Real charge>  (3) 
0

>  <Mult>  (3) 
1

$$$$
