mol_296 170
     RDKit          3D

 18 18  0  0  0  0  0  0  0  0999 V2000
    3.1943   -0.0459    0.0789 C   0  0  0  0  0  0  0  0  0  0  0  0
    2.1313   -0.9039    0.4750 O   0  0  0  0  0  0  0  0  0  0  0  0
    0.8579   -0.4654    0.2403 C   0  0  0  0  0  0  0  0  0  0  0  0
    0.5043    0.7487   -0.3531 C   0  0  0  0  0  0  0  0  0  0  0  0
   -0.8443    1.0777   -0.5362 C   0  0  0  0  0  0  0  0  0  0  0  0
   -1.8401    0.1839   -0.1216 C   0  0  0  0  0  0  0  0  0  0  0  0
   -1.4954   -1.0341    0.4735 C   0  0  0  0  0  0  0  0  0  0  0  0
   -0.1459   -1.3500    0.6503 C   0  0  0  0  0  0  0  0  0  0  0  0
   -3.2544    0.5281   -0.3132 N   0  0  0  0  0  4  0  0  0  0  0  0
   -3.5154    1.6171   -0.8445 O   0  0  0  0  0  1  0  0  0  0  0  0
   -4.1043   -0.2897    0.0672 O   0  0  0  0  0  0  0  0  0  0  0  0
    4.1362   -0.5405    0.3349 H   0  0  0  0  0  0  0  0  0  0  0  0
    3.1580    0.9039    0.6227 H   0  0  0  0  0  0  0  0  0  0  0  0
    3.1869    0.1172   -1.0038 H   0  0  0  0  0  0  0  0  0  0  0  0
    1.2526    1.4619   -0.6848 H   0  0  0  0  0  0  0  0  0  0  0  0
   -1.0975    2.0288   -1.0007 H   0  0  0  0  0  0  0  0  0  0  0  0
   -2.2532   -1.7418    0.8023 H   0  0  0  0  0  0  0  0  0  0  0  0
    0.1292   -2.2961    1.1127 H   0  0  0  0  0  0  0  0  0  0  0  0
  1  2  1  0
  2  3  1  0
  3  4  2  0
  4  5  1  0
  5  6  2  0
  6  7  1  0
  7  8  2  0
  6  9  1  0
  9 10  1  0
  9 11  2  0
  8  3  1  0
  1 12  1  0
  1 13  1  0
  1 14  1  0
  4 15  1  0
  5 16  1  0
  7 17  1  0
  8 18  1  0
M  CHG  2   9   1  10  -1
M  END
>  <Energy>  (1) 
52.995048353306935

>  <Real charge>  (1) 
0

>  <Mult>  (1) 
1

$$$$
