mol_858 120
     RDKit          3D

 16 16  0  0  0  0  0  0  0  0999 V2000
   -0.6140    1.1719   -1.0583 C   0  0  0  0  0  0  0  0  0  0  0  0
   -1.9085    1.1455   -0.5345 C   0  0  0  0  0  0  0  0  0  0  0  0
   -2.3547    0.0262    0.1659 C   0  0  0  0  0  0  0  0  0  0  0  0
   -1.5096   -1.0687    0.3380 C   0  0  0  0  0  0  0  0  0  0  0  0
   -0.2146   -1.0422   -0.1854 C   0  0  0  0  0  0  0  0  0  0  0  0
    0.2448    0.0833   -0.8770 C   0  0  0  0  0  0  0  0  0  0  0  0
    1.8867    0.1491   -1.5714 S   0  0  0  0  0  0  0  0  0  0  0  0
    2.8689   -0.1239   -0.0729 C   0  0  0  0  0  0  0  0  0  0  0  0
   -0.2812    2.0497   -1.6072 H   0  0  0  0  0  0  0  0  0  0  0  0
   -2.5682    1.9974   -0.6771 H   0  0  0  0  0  0  0  0  0  0  0  0
   -3.3633    0.0045    0.5709 H   0  0  0  0  0  0  0  0  0  0  0  0
   -1.8604   -1.9470    0.8737 H   0  0  0  0  0  0  0  0  0  0  0  0
    0.4227   -1.9130   -0.0584 H   0  0  0  0  0  0  0  0  0  0  0  0
    2.7191   -1.1351    0.3139 H   0  0  0  0  0  0  0  0  0  0  0  0
    2.6040    0.6049    0.6982 H   0  0  0  0  0  0  0  0  0  0  0  0
    3.9283   -0.0028   -0.3147 H   0  0  0  0  0  0  0  0  0  0  0  0
  1  2  2  0
  2  3  1  0
  3  4  2  0
  4  5  1  0
  5  6  2  0
  6  7  1  0
  7  8  1  0
  6  1  1  0
  1  9  1  0
  2 10  1  0
  3 11  1  0
  4 12  1  0
  5 13  1  0
  8 14  1  0
  8 15  1  0
  8 16  1  0
M  END
>  <Energy>  (1) 
15.41323635717781

>  <Real charge>  (1) 
0

>  <Mult>  (1) 
1

$$$$
