mol_783 267
     RDKit          3D

 21 20  0  0  0  0  0  0  0  0999 V2000
    3.6935   -0.0211    0.1931 C   0  0  0  0  0  0  0  0  0  0  0  0
    2.3878   -0.3438   -0.5110 C   0  0  0  0  0  0  0  0  0  0  0  0
    1.1799    0.1147    0.2957 C   0  0  0  0  0  0  0  0  0  0  0  0
    0.0009   -0.2246   -0.4325 O   0  0  0  0  0  0  0  0  0  0  0  0
   -1.1811    0.1738    0.2600 C   0  0  0  0  0  0  0  0  0  0  0  0
   -2.3855   -0.2243   -0.5831 C   0  0  0  0  0  0  0  0  0  0  0  0
   -3.6940    0.1637    0.0814 C   0  0  0  0  0  0  0  0  0  0  0  0
    4.5427   -0.3610   -0.4078 H   0  0  0  0  0  0  0  0  0  0  0  0
    3.7466   -0.5172    1.1675 H   0  0  0  0  0  0  0  0  0  0  0  0
    3.7984    1.0571    0.3502 H   0  0  0  0  0  0  0  0  0  0  0  0
    2.3200   -1.4230   -0.6932 H   0  0  0  0  0  0  0  0  0  0  0  0
    2.3711    0.1304   -1.4997 H   0  0  0  0  0  0  0  0  0  0  0  0
    1.1638   -0.3843    1.2715 H   0  0  0  0  0  0  0  0  0  0  0  0
    1.2159    1.1994    0.4493 H   0  0  0  0  0  0  0  0  0  0  0  0
   -1.1674    1.2591    0.4133 H   0  0  0  0  0  0  0  0  0  0  0  0
   -1.2195   -0.3247    1.2355 H   0  0  0  0  0  0  0  0  0  0  0  0
   -2.3152    0.2477   -1.5705 H   0  0  0  0  0  0  0  0  0  0  0  0
   -2.3663   -1.3058   -0.7641 H   0  0  0  0  0  0  0  0  0  0  0  0
   -3.7496    1.2460    0.2360 H   0  0  0  0  0  0  0  0  0  0  0  0
   -3.8014   -0.3284    1.0534 H   0  0  0  0  0  0  0  0  0  0  0  0
   -4.5407   -0.1337   -0.5451 H   0  0  0  0  0  0  0  0  0  0  0  0
  1  2  1  0
  2  3  1  0
  3  4  1  0
  4  5  1  0
  5  6  1  0
  6  7  1  0
  1  8  1  0
  1  9  1  0
  1 10  1  0
  2 11  1  0
  2 12  1  0
  3 13  1  0
  3 14  1  0
  5 15  1  0
  5 16  1  0
  6 17  1  0
  6 18  1  0
  7 19  1  0
  7 20  1  0
  7 21  1  0
M  END
>  <Energy>  (1) 
0.9848422796703131

>  <Real charge>  (1) 
0

>  <Mult>  (1) 
1

$$$$
mol_783 161
     RDKit          3D

 21 20  0  0  0  0  0  0  0  0999 V2000
    3.0077    0.4997    0.5561 C   0  0  0  0  0  0  0  0  0  0  0  0
    2.5098   -0.8527    0.0663 C   0  0  0  0  0  0  0  0  0  0  0  0
    1.2173   -0.7393   -0.7347 C   0  0  0  0  0  0  0  0  0  0  0  0
    0.1807   -0.2442    0.1103 O   0  0  0  0  0  0  0  0  0  0  0  0
   -1.0554   -0.1125   -0.5895 C   0  0  0  0  0  0  0  0  0  0  0  0
   -2.0998    0.4194    0.3832 C   0  0  0  0  0  0  0  0  0  0  0  0
   -3.4543    0.5920   -0.2803 C   0  0  0  0  0  0  0  0  0  0  0  0
    3.1868    1.1783   -0.2839 H   0  0  0  0  0  0  0  0  0  0  0  0
    3.9488    0.3799    1.1021 H   0  0  0  0  0  0  0  0  0  0  0  0
    2.2852    0.9702    1.2304 H   0  0  0  0  0  0  0  0  0  0  0  0
    2.3468   -1.4986    0.9369 H   0  0  0  0  0  0  0  0  0  0  0  0
    3.2826   -1.3183   -0.5552 H   0  0  0  0  0  0  0  0  0  0  0  0
    0.9351   -1.7292   -1.1110 H   0  0  0  0  0  0  0  0  0  0  0  0
    1.3563   -0.0642   -1.5870 H   0  0  0  0  0  0  0  0  0  0  0  0
   -0.9292    0.5822   -1.4278 H   0  0  0  0  0  0  0  0  0  0  0  0
   -1.3619   -1.0904   -0.9783 H   0  0  0  0  0  0  0  0  0  0  0  0
   -1.7629    1.3777    0.7964 H   0  0  0  0  0  0  0  0  0  0  0  0
   -2.1879   -0.2627    1.2373 H   0  0  0  0  0  0  0  0  0  0  0  0
   -3.8265   -0.3624   -0.6661 H   0  0  0  0  0  0  0  0  0  0  0  0
   -3.3957    1.3002   -1.1129 H   0  0  0  0  0  0  0  0  0  0  0  0
   -4.1837    0.9747    0.4404 H   0  0  0  0  0  0  0  0  0  0  0  0
  1  2  1  0
  2  3  1  0
  3  4  1  0
  4  5  1  0
  5  6  1  0
  6  7  1  0
  1  8  1  0
  1  9  1  0
  1 10  1  0
  2 11  1  0
  2 12  1  0
  3 13  1  0
  3 14  1  0
  5 15  1  0
  5 16  1  0
  6 17  1  0
  6 18  1  0
  7 19  1  0
  7 20  1  0
  7 21  1  0
M  END
>  <Energy>  (2) 
1.1963644604831438

>  <Real charge>  (2) 
0

>  <Mult>  (2) 
1

$$$$
mol_783 198
     RDKit          3D

 21 20  0  0  0  0  0  0  0  0999 V2000
   -2.4934    0.9614    0.3099 C   0  0  0  0  0  0  0  0  0  0  0  0
   -2.4200   -0.3594   -0.4434 C   0  0  0  0  0  0  0  0  0  0  0  0
   -1.1136   -1.1018   -0.1848 C   0  0  0  0  0  0  0  0  0  0  0  0
   -0.0251   -0.3247   -0.6790 O   0  0  0  0  0  0  0  0  0  0  0  0
    1.2291   -0.9647   -0.4550 C   0  0  0  0  0  0  0  0  0  0  0  0
    2.3483   -0.0803   -0.9934 C   0  0  0  0  0  0  0  0  0  0  0  0
    2.4382    1.2500   -0.2589 C   0  0  0  0  0  0  0  0  0  0  0  0
   -1.6994    1.6453   -0.0062 H   0  0  0  0  0  0  0  0  0  0  0  0
   -3.4540    1.4507    0.1204 H   0  0  0  0  0  0  0  0  0  0  0  0
   -2.4008    0.8020    1.3889 H   0  0  0  0  0  0  0  0  0  0  0  0
   -2.5192   -0.1533   -1.5155 H   0  0  0  0  0  0  0  0  0  0  0  0
   -3.2630   -0.9924   -0.1454 H   0  0  0  0  0  0  0  0  0  0  0  0
   -0.9851   -1.2813    0.8889 H   0  0  0  0  0  0  0  0  0  0  0  0
   -1.1342   -2.0667   -0.7041 H   0  0  0  0  0  0  0  0  0  0  0  0
    1.2422   -1.9276   -0.9782 H   0  0  0  0  0  0  0  0  0  0  0  0
    1.3690   -1.1436    0.6174 H   0  0  0  0  0  0  0  0  0  0  0  0
    2.1773    0.1215   -2.0572 H   0  0  0  0  0  0  0  0  0  0  0  0
    3.3041   -0.6081   -0.9028 H   0  0  0  0  0  0  0  0  0  0  0  0
    2.6118    1.0953    0.8108 H   0  0  0  0  0  0  0  0  0  0  0  0
    1.5199    1.8337   -0.3775 H   0  0  0  0  0  0  0  0  0  0  0  0
    3.2679    1.8441   -0.6549 H   0  0  0  0  0  0  0  0  0  0  0  0
  1  2  1  0
  2  3  1  0
  3  4  1  0
  4  5  1  0
  5  6  1  0
  6  7  1  0
  1  8  1  0
  1  9  1  0
  1 10  1  0
  2 11  1  0
  2 12  1  0
  3 13  1  0
  3 14  1  0
  5 15  1  0
  5 16  1  0
  6 17  1  0
  6 18  1  0
  7 19  1  0
  7 20  1  0
  7 21  1  0
M  END
>  <Energy>  (3) 
1.345550569520305

>  <Real charge>  (3) 
0

>  <Mult>  (3) 
1

$$$$
mol_783 172
     RDKit          3D

 21 20  0  0  0  0  0  0  0  0999 V2000
   -2.7212    0.3118   -0.9731 C   0  0  0  0  0  0  0  0  0  0  0  0
   -2.2465    0.7813    0.3948 C   0  0  0  0  0  0  0  0  0  0  0  0
   -1.1607   -0.1199    0.9725 C   0  0  0  0  0  0  0  0  0  0  0  0
   -0.0073   -0.0634    0.1361 O   0  0  0  0  0  0  0  0  0  0  0  0
    1.0450   -0.8910    0.6270 C   0  0  0  0  0  0  0  0  0  0  0  0
    2.2460   -0.7856   -0.3064 C   0  0  0  0  0  0  0  0  0  0  0  0
    2.8279    0.6204   -0.3444 C   0  0  0  0  0  0  0  0  0  0  0  0
   -3.1172   -0.7074   -0.9212 H   0  0  0  0  0  0  0  0  0  0  0  0
   -1.9072    0.3278   -1.7046 H   0  0  0  0  0  0  0  0  0  0  0  0
   -3.5172    0.9668   -1.3412 H   0  0  0  0  0  0  0  0  0  0  0  0
   -3.0988    0.8099    1.0825 H   0  0  0  0  0  0  0  0  0  0  0  0
   -1.8617    1.8031    0.2966 H   0  0  0  0  0  0  0  0  0  0  0  0
   -0.8962    0.2285    1.9774 H   0  0  0  0  0  0  0  0  0  0  0  0
   -1.5203   -1.1532    1.0403 H   0  0  0  0  0  0  0  0  0  0  0  0
    1.3222   -0.5779    1.6403 H   0  0  0  0  0  0  0  0  0  0  0  0
    0.7013   -1.9311    0.6606 H   0  0  0  0  0  0  0  0  0  0  0  0
    1.9462   -1.0646   -1.3233 H   0  0  0  0  0  0  0  0  0  0  0  0
    3.0212   -1.4884    0.0181 H   0  0  0  0  0  0  0  0  0  0  0  0
    3.1438    0.9402    0.6537 H   0  0  0  0  0  0  0  0  0  0  0  0
    3.7021    0.6491   -1.0025 H   0  0  0  0  0  0  0  0  0  0  0  0
    2.0985    1.3436   -0.7225 H   0  0  0  0  0  0  0  0  0  0  0  0
  1  2  1  0
  2  3  1  0
  3  4  1  0
  4  5  1  0
  5  6  1  0
  6  7  1  0
  1  8  1  0
  1  9  1  0
  1 10  1  0
  2 11  1  0
  2 12  1  0
  3 13  1  0
  3 14  1  0
  5 15  1  0
  5 16  1  0
  6 17  1  0
  6 18  1  0
  7 19  1  0
  7 20  1  0
  7 21  1  0
M  END
>  <Energy>  (4) 
1.3959981052264436

>  <Real charge>  (4) 
0

>  <Mult>  (4) 
1

$$$$
