mol_981 17
     RDKit          3D

 12 12  0  0  0  0  0  0  0  0999 V2000
    1.9129    1.9342    0.0505 F   0  0  0  0  0  0  0  0  0  0  0  0
    0.9713    0.9822    0.0256 C   0  0  0  0  0  0  0  0  0  0  0  0
    1.3525   -0.3573    0.0279 C   0  0  0  0  0  0  0  0  0  0  0  0
    0.3719   -1.3489    0.0020 C   0  0  0  0  0  0  0  0  0  0  0  0
   -0.9713   -0.9822   -0.0256 C   0  0  0  0  0  0  0  0  0  0  0  0
   -1.9129   -1.9342   -0.0505 F   0  0  0  0  0  0  0  0  0  0  0  0
   -1.3525    0.3573   -0.0279 C   0  0  0  0  0  0  0  0  0  0  0  0
   -0.3719    1.3489   -0.0020 C   0  0  0  0  0  0  0  0  0  0  0  0
    2.4060   -0.6171    0.0497 H   0  0  0  0  0  0  0  0  0  0  0  0
    0.6431   -2.3997    0.0031 H   0  0  0  0  0  0  0  0  0  0  0  0
   -2.4060    0.6171   -0.0497 H   0  0  0  0  0  0  0  0  0  0  0  0
   -0.6431    2.3997   -0.0031 H   0  0  0  0  0  0  0  0  0  0  0  0
  1  2  1  0
  2  3  2  0
  3  4  1  0
  4  5  2  0
  5  6  1  0
  5  7  1  0
  7  8  2  0
  8  2  1  0
  3  9  1  0
  4 10  1  0
  7 11  1  0
  8 12  1  0
M  END
>  <Energy>  (1) 
10.399043220901916

>  <Real charge>  (1) 
0

>  <Mult>  (1) 
1

$$$$
