mol_480 439
     RDKit          3D

 41 42  0  0  0  0  0  0  0  0999 V2000
    4.3932   -1.9296    3.8613 C   0  0  0  0  0  0  0  0  0  0  0  0
    3.7471   -0.9595    2.9240 C   0  0  0  0  0  0  0  0  0  0  0  0
    4.1157   -0.9032    1.5790 C   0  0  0  0  0  0  0  0  0  0  0  0
    5.0867   -1.7082    1.1235 F   0  0  0  0  0  0  0  0  0  0  0  0
    3.4895   -0.0218    0.6957 C   0  0  0  0  0  0  0  0  0  0  0  0
    3.8738    0.0030   -0.5888 F   0  0  0  0  0  0  0  0  0  0  0  0
    2.4721    0.8287    1.1284 C   0  0  0  0  0  0  0  0  0  0  0  0
    1.7683    1.7422    0.1741 C   0  0  0  0  0  0  0  0  0  0  0  0
    0.6065    1.0535   -0.2869 O   0  0  0  0  0  0  0  0  0  0  0  0
   -0.1243    1.7546   -1.1874 C   0  0  0  0  0  0  0  0  0  0  0  0
    0.1326    2.8703   -1.6128 O   0  0  0  0  0  0  0  0  0  0  0  0
   -1.3023    0.9874   -1.6542 C   0  0  0  0  0  0  0  0  0  0  0  0
   -2.1295    0.1629   -0.6866 C   0  0  0  0  0  0  0  0  0  0  0  0
   -2.5933   -1.1720   -1.0963 C   0  0  0  0  0  0  0  0  0  0  0  0
   -1.8624   -2.2977   -1.2146 C   0  0  0  0  0  0  0  0  0  0  0  0
   -0.1572   -2.2879   -0.8759 Cl  0  0  0  0  0  0  0  0  0  0  0  0
   -2.4134   -3.6325   -1.6251 C   0  0  0  0  0  0  0  0  0  0  0  0
   -3.7508   -3.5873   -1.8727 F   0  0  0  0  0  0  0  0  0  0  0  0
   -1.8307   -4.0998   -2.7595 F   0  0  0  0  0  0  0  0  0  0  0  0
   -2.2337   -4.5783   -0.6671 F   0  0  0  0  0  0  0  0  0  0  0  0
   -2.7185    1.4217   -1.3045 C   0  0  0  0  0  0  0  0  0  0  0  0
   -3.7450    1.3449   -2.4097 C   0  0  0  0  0  0  0  0  0  0  0  0
   -2.9282    2.6005   -0.3823 C   0  0  0  0  0  0  0  0  0  0  0  0
    2.0866    0.7560    2.4672 C   0  0  0  0  0  0  0  0  0  0  0  0
    1.0958    1.5413    2.9149 F   0  0  0  0  0  0  0  0  0  0  0  0
    2.7124   -0.1256    3.3504 C   0  0  0  0  0  0  0  0  0  0  0  0
    2.3080   -0.1703    4.6283 F   0  0  0  0  0  0  0  0  0  0  0  0
    5.4359   -2.1117    3.5810 H   0  0  0  0  0  0  0  0  0  0  0  0
    3.8526   -2.8810    3.8476 H   0  0  0  0  0  0  0  0  0  0  0  0
    4.3997   -1.5417    4.8853 H   0  0  0  0  0  0  0  0  0  0  0  0
    2.4223    1.9951   -0.6695 H   0  0  0  0  0  0  0  0  0  0  0  0
    1.4826    2.6721    0.6810 H   0  0  0  0  0  0  0  0  0  0  0  0
   -1.1509    0.5885   -2.6529 H   0  0  0  0  0  0  0  0  0  0  0  0
   -1.8655    0.2144    0.3682 H   0  0  0  0  0  0  0  0  0  0  0  0
   -3.6623   -1.2505   -1.2967 H   0  0  0  0  0  0  0  0  0  0  0  0
   -3.7763    2.2896   -2.9630 H   0  0  0  0  0  0  0  0  0  0  0  0
   -4.7398    1.1601   -1.9912 H   0  0  0  0  0  0  0  0  0  0  0  0
   -3.5270    0.5508   -3.1315 H   0  0  0  0  0  0  0  0  0  0  0  0
   -3.9349    2.5685    0.0476 H   0  0  0  0  0  0  0  0  0  0  0  0
   -2.2152    2.6127    0.4489 H   0  0  0  0  0  0  0  0  0  0  0  0
   -2.8201    3.5398   -0.9346 H   0  0  0  0  0  0  0  0  0  0  0  0
  1  2  1  0
  2  3  2  0
  3  4  1  0
  3  5  1  0
  5  6  1  0
  5  7  2  0
  7  8  1  0
  8  9  1  0
  9 10  1  0
 10 11  2  0
 10 12  1  0
 12 13  1  0
 13 14  1  0
 14 15  2  3
 15 16  1  0
 15 17  1  0
 17 18  1  0
 17 19  1  0
 17 20  1  0
 13 21  1  0
 21 22  1  0
 21 23  1  0
  7 24  1  0
 24 25  1  0
 24 26  2  0
 26 27  1  0
 26  2  1  0
 21 12  1  0
  1 28  1  0
  1 29  1  0
  1 30  1  0
  8 31  1  0
  8 32  1  0
 12 33  1  0
 13 34  1  0
 14 35  1  0
 22 36  1  0
 22 37  1  0
 22 38  1  0
 23 39  1  0
 23 40  1  0
 23 41  1  0
M  END
>  <Energy>  (1) 
40.13702860084485

>  <Real charge>  (1) 
0

>  <Mult>  (1) 
1

$$$$
mol_480 370
     RDKit          3D

 41 42  0  0  0  0  0  0  0  0999 V2000
    6.5437   -0.8477    0.7116 C   0  0  0  0  0  0  0  0  0  0  0  0
    5.2947   -0.1309    0.3072 C   0  0  0  0  0  0  0  0  0  0  0  0
    4.3550    0.2710    1.2575 C   0  0  0  0  0  0  0  0  0  0  0  0
    4.5852    0.0385    2.5580 F   0  0  0  0  0  0  0  0  0  0  0  0
    3.1740    0.9108    0.8772 C   0  0  0  0  0  0  0  0  0  0  0  0
    2.2954    1.2831    1.8197 F   0  0  0  0  0  0  0  0  0  0  0  0
    2.8923    1.1646   -0.4658 C   0  0  0  0  0  0  0  0  0  0  0  0
    1.6087    1.8222   -0.8676 C   0  0  0  0  0  0  0  0  0  0  0  0
    0.5926    0.8187   -0.8626 O   0  0  0  0  0  0  0  0  0  0  0  0
   -0.6534    1.3120   -1.0702 C   0  0  0  0  0  0  0  0  0  0  0  0
   -0.9413    2.4756   -1.3032 O   0  0  0  0  0  0  0  0  0  0  0  0
   -1.6742    0.2419   -1.0071 C   0  0  0  0  0  0  0  0  0  0  0  0
   -2.9593    0.4769   -0.2370 C   0  0  0  0  0  0  0  0  0  0  0  0
   -4.2358    0.0325   -0.8182 C   0  0  0  0  0  0  0  0  0  0  0  0
   -5.3555   -0.3222   -0.1582 C   0  0  0  0  0  0  0  0  0  0  0  0
   -5.4020   -0.2958    1.5794 Cl  0  0  0  0  0  0  0  0  0  0  0  0
   -6.6306   -0.7617   -0.8155 C   0  0  0  0  0  0  0  0  0  0  0  0
   -6.9855   -2.0219   -0.4529 F   0  0  0  0  0  0  0  0  0  0  0  0
   -7.6751    0.0494   -0.5063 F   0  0  0  0  0  0  0  0  0  0  0  0
   -6.5388   -0.7674   -2.1735 F   0  0  0  0  0  0  0  0  0  0  0  0
   -1.9461   -0.5323    0.2764 C   0  0  0  0  0  0  0  0  0  0  0  0
   -1.2149   -0.1682    1.5478 C   0  0  0  0  0  0  0  0  0  0  0  0
   -2.1872   -2.0166    0.1363 C   0  0  0  0  0  0  0  0  0  0  0  0
    3.8194    0.7416   -1.4176 C   0  0  0  0  0  0  0  0  0  0  0  0
    3.5751    0.9474   -2.7199 F   0  0  0  0  0  0  0  0  0  0  0  0
    5.0009    0.1019   -1.0373 C   0  0  0  0  0  0  0  0  0  0  0  0
    5.8642   -0.2960   -1.9832 F   0  0  0  0  0  0  0  0  0  0  0  0
    7.3588   -0.6434    0.0094 H   0  0  0  0  0  0  0  0  0  0  0  0
    6.3643   -1.9268    0.7401 H   0  0  0  0  0  0  0  0  0  0  0  0
    6.8824   -0.5197    1.7000 H   0  0  0  0  0  0  0  0  0  0  0  0
    1.3665    2.6239   -0.1584 H   0  0  0  0  0  0  0  0  0  0  0  0
    1.6927    2.2609   -1.8691 H   0  0  0  0  0  0  0  0  0  0  0  0
   -1.7504   -0.3041   -1.9422 H   0  0  0  0  0  0  0  0  0  0  0  0
   -3.0372    1.4274    0.2889 H   0  0  0  0  0  0  0  0  0  0  0  0
   -4.2700    0.0116   -1.9079 H   0  0  0  0  0  0  0  0  0  0  0  0
   -0.2225   -0.6308    1.5629 H   0  0  0  0  0  0  0  0  0  0  0  0
   -1.7733   -0.5259    2.4193 H   0  0  0  0  0  0  0  0  0  0  0  0
   -1.0855    0.9134    1.6606 H   0  0  0  0  0  0  0  0  0  0  0  0
   -1.2373   -2.5590    0.1940 H   0  0  0  0  0  0  0  0  0  0  0  0
   -2.8346   -2.3764    0.9426 H   0  0  0  0  0  0  0  0  0  0  0  0
   -2.6554   -2.2786   -0.8182 H   0  0  0  0  0  0  0  0  0  0  0  0
  1  2  1  0
  2  3  2  0
  3  4  1  0
  3  5  1  0
  5  6  1  0
  5  7  2  0
  7  8  1  0
  8  9  1  0
  9 10  1  0
 10 11  2  0
 10 12  1  0
 12 13  1  0
 13 14  1  0
 14 15  2  3
 15 16  1  0
 15 17  1  0
 17 18  1  0
 17 19  1  0
 17 20  1  0
 13 21  1  0
 21 22  1  0
 21 23  1  0
  7 24  1  0
 24 25  1  0
 24 26  2  0
 26 27  1  0
 26  2  1  0
 21 12  1  0
  1 28  1  0
  1 29  1  0
  1 30  1  0
  8 31  1  0
  8 32  1  0
 12 33  1  0
 13 34  1  0
 14 35  1  0
 22 36  1  0
 22 37  1  0
 22 38  1  0
 23 39  1  0
 23 40  1  0
 23 41  1  0
M  END
>  <Energy>  (2) 
40.35712693080554

>  <Real charge>  (2) 
0

>  <Mult>  (2) 
1

$$$$
mol_480 422
     RDKit          3D

 41 42  0  0  0  0  0  0  0  0999 V2000
    6.3480   -0.5400   -1.9451 C   0  0  0  0  0  0  0  0  0  0  0  0
    5.1867   -0.2265   -1.0560 C   0  0  0  0  0  0  0  0  0  0  0  0
    4.2714    0.7721   -1.3916 C   0  0  0  0  0  0  0  0  0  0  0  0
    4.4136    1.4425   -2.5442 F   0  0  0  0  0  0  0  0  0  0  0  0
    3.2061    1.0867   -0.5461 C   0  0  0  0  0  0  0  0  0  0  0  0
    2.3399    2.0442   -0.9088 F   0  0  0  0  0  0  0  0  0  0  0  0
    3.0310    0.4242    0.6697 C   0  0  0  0  0  0  0  0  0  0  0  0
    1.8682    0.7460    1.5560 C   0  0  0  0  0  0  0  0  0  0  0  0
    0.7276    0.0657    1.0309 O   0  0  0  0  0  0  0  0  0  0  0  0
   -0.4301    0.3909    1.6577 C   0  0  0  0  0  0  0  0  0  0  0  0
   -0.5485    1.1358    2.6181 O   0  0  0  0  0  0  0  0  0  0  0  0
   -1.5870   -0.3008    1.0459 C   0  0  0  0  0  0  0  0  0  0  0  0
   -2.8629    0.4719    0.7723 C   0  0  0  0  0  0  0  0  0  0  0  0
   -4.1596   -0.1510    1.0814 C   0  0  0  0  0  0  0  0  0  0  0  0
   -5.3457    0.0934    0.4912 C   0  0  0  0  0  0  0  0  0  0  0  0
   -5.4678    1.2521   -0.7990 Cl  0  0  0  0  0  0  0  0  0  0  0  0
   -6.6369   -0.5755    0.8609 C   0  0  0  0  0  0  0  0  0  0  0  0
   -6.4845   -1.4738    1.8720 F   0  0  0  0  0  0  0  0  0  0  0  0
   -7.1738   -1.2627   -0.1808 F   0  0  0  0  0  0  0  0  0  0  0  0
   -7.5761    0.3129    1.2768 F   0  0  0  0  0  0  0  0  0  0  0  0
   -2.0188   -0.0260   -0.3888 C   0  0  0  0  0  0  0  0  0  0  0  0
   -1.3045    1.0267   -1.2045 C   0  0  0  0  0  0  0  0  0  0  0  0
   -2.4503   -1.2187   -1.2089 C   0  0  0  0  0  0  0  0  0  0  0  0
    3.9494   -0.5687    1.0093 C   0  0  0  0  0  0  0  0  0  0  0  0
    3.8133   -1.2315    2.1669 F   0  0  0  0  0  0  0  0  0  0  0  0
    5.0152   -0.8832    0.1638 C   0  0  0  0  0  0  0  0  0  0  0  0
    5.8865   -1.8331    0.5335 F   0  0  0  0  0  0  0  0  0  0  0  0
    6.6421   -1.5906   -1.8515 H   0  0  0  0  0  0  0  0  0  0  0  0
    7.2027    0.0907   -1.6818 H   0  0  0  0  0  0  0  0  0  0  0  0
    6.0946   -0.3706   -2.9968 H   0  0  0  0  0  0  0  0  0  0  0  0
    1.7024    1.8308    1.5681 H   0  0  0  0  0  0  0  0  0  0  0  0
    2.0573    0.4141    2.5838 H   0  0  0  0  0  0  0  0  0  0  0  0
   -1.6930   -1.3178    1.4104 H   0  0  0  0  0  0  0  0  0  0  0  0
   -2.8366    1.5374    0.9962 H   0  0  0  0  0  0  0  0  0  0  0  0
   -4.1463   -0.8764    1.8955 H   0  0  0  0  0  0  0  0  0  0  0  0
   -0.3850    0.6165   -1.6351 H   0  0  0  0  0  0  0  0  0  0  0  0
   -1.0363    1.9060   -0.6095 H   0  0  0  0  0  0  0  0  0  0  0  0
   -1.9452    1.3669   -2.0249 H   0  0  0  0  0  0  0  0  0  0  0  0
   -1.5854   -1.6580   -1.7175 H   0  0  0  0  0  0  0  0  0  0  0  0
   -2.9052   -2.0062   -0.5990 H   0  0  0  0  0  0  0  0  0  0  0  0
   -3.1763   -0.9164   -1.9705 H   0  0  0  0  0  0  0  0  0  0  0  0
  1  2  1  0
  2  3  2  0
  3  4  1  0
  3  5  1  0
  5  6  1  0
  5  7  2  0
  7  8  1  0
  8  9  1  0
  9 10  1  0
 10 11  2  0
 10 12  1  0
 12 13  1  0
 13 14  1  0
 14 15  2  3
 15 16  1  0
 15 17  1  0
 17 18  1  0
 17 19  1  0
 17 20  1  0
 13 21  1  0
 21 22  1  0
 21 23  1  0
  7 24  1  0
 24 25  1  0
 24 26  2  0
 26 27  1  0
 26  2  1  0
 21 12  1  0
  1 28  1  0
  1 29  1  0
  1 30  1  0
  8 31  1  0
  8 32  1  0
 12 33  1  0
 13 34  1  0
 14 35  1  0
 22 36  1  0
 22 37  1  0
 22 38  1  0
 23 39  1  0
 23 40  1  0
 23 41  1  0
M  END
>  <Energy>  (3) 
40.370544237786255

>  <Real charge>  (3) 
0

>  <Mult>  (3) 
1

$$$$
mol_480 319
     RDKit          3D

 41 42  0  0  0  0  0  0  0  0999 V2000
    5.9220    0.9170   -1.8323 C   0  0  0  0  0  0  0  0  0  0  0  0
    4.8303    0.1529   -1.1528 C   0  0  0  0  0  0  0  0  0  0  0  0
    4.6889    0.1791    0.2355 C   0  0  0  0  0  0  0  0  0  0  0  0
    5.5613    0.8762    0.9779 F   0  0  0  0  0  0  0  0  0  0  0  0
    3.6504   -0.5072    0.8679 C   0  0  0  0  0  0  0  0  0  0  0  0
    3.5490   -0.4573    2.2041 F   0  0  0  0  0  0  0  0  0  0  0  0
    2.7178   -1.2381    0.1321 C   0  0  0  0  0  0  0  0  0  0  0  0
    1.5837   -1.9467    0.8051 C   0  0  0  0  0  0  0  0  0  0  0  0
    0.4727   -1.0496    0.8352 O   0  0  0  0  0  0  0  0  0  0  0  0
   -0.6480   -1.5996    1.3670 C   0  0  0  0  0  0  0  0  0  0  0  0
   -0.7495   -2.7282    1.8226 O   0  0  0  0  0  0  0  0  0  0  0  0
   -1.7829   -0.6471    1.3769 C   0  0  0  0  0  0  0  0  0  0  0  0
   -2.0094    0.3246    0.2354 C   0  0  0  0  0  0  0  0  0  0  0  0
   -2.4223    1.7037    0.5402 C   0  0  0  0  0  0  0  0  0  0  0  0
   -3.1218    2.5408   -0.2503 C   0  0  0  0  0  0  0  0  0  0  0  0
   -3.6494    2.0317   -1.8265 Cl  0  0  0  0  0  0  0  0  0  0  0  0
   -3.5084    3.9424    0.1210 C   0  0  0  0  0  0  0  0  0  0  0  0
   -2.9907    4.8613   -0.7347 F   0  0  0  0  0  0  0  0  0  0  0  0
   -4.8551    4.1187    0.1268 F   0  0  0  0  0  0  0  0  0  0  0  0
   -3.0722    4.2878    1.3631 F   0  0  0  0  0  0  0  0  0  0  0  0
   -2.9697   -0.8354    0.4411 C   0  0  0  0  0  0  0  0  0  0  0  0
   -4.3436   -0.6128    1.0277 C   0  0  0  0  0  0  0  0  0  0  0  0
   -2.9379   -1.9362   -0.5934 C   0  0  0  0  0  0  0  0  0  0  0  0
    2.8436   -1.2441   -1.2573 C   0  0  0  0  0  0  0  0  0  0  0  0
    1.9519   -1.9158   -2.0002 F   0  0  0  0  0  0  0  0  0  0  0  0
    3.8820   -0.5579   -1.8899 C   0  0  0  0  0  0  0  0  0  0  0  0
    3.9644   -0.5826   -3.2281 F   0  0  0  0  0  0  0  0  0  0  0  0
    5.5845    1.9334   -2.0569 H   0  0  0  0  0  0  0  0  0  0  0  0
    6.2202    0.4292   -2.7663 H   0  0  0  0  0  0  0  0  0  0  0  0
    6.8146    0.9725   -1.2005 H   0  0  0  0  0  0  0  0  0  0  0  0
    1.3267   -2.8571    0.2490 H   0  0  0  0  0  0  0  0  0  0  0  0
    1.8634   -2.2343    1.8260 H   0  0  0  0  0  0  0  0  0  0  0  0
   -2.0122   -0.3082    2.3827 H   0  0  0  0  0  0  0  0  0  0  0  0
   -1.3226    0.2605   -0.6067 H   0  0  0  0  0  0  0  0  0  0  0  0
   -2.1073    2.0819    1.5133 H   0  0  0  0  0  0  0  0  0  0  0  0
   -4.3429    0.1319    1.8304 H   0  0  0  0  0  0  0  0  0  0  0  0
   -5.0394   -0.2760    0.2523 H   0  0  0  0  0  0  0  0  0  0  0  0
   -4.7290   -1.5473    1.4494 H   0  0  0  0  0  0  0  0  0  0  0  0
   -3.6555   -1.7235   -1.3929 H   0  0  0  0  0  0  0  0  0  0  0  0
   -1.9517   -2.0457   -1.0567 H   0  0  0  0  0  0  0  0  0  0  0  0
   -3.2058   -2.8948   -0.1371 H   0  0  0  0  0  0  0  0  0  0  0  0
  1  2  1  0
  2  3  2  0
  3  4  1  0
  3  5  1  0
  5  6  1  0
  5  7  2  0
  7  8  1  0
  8  9  1  0
  9 10  1  0
 10 11  2  0
 10 12  1  0
 12 13  1  0
 13 14  1  0
 14 15  2  3
 15 16  1  0
 15 17  1  0
 17 18  1  0
 17 19  1  0
 17 20  1  0
 13 21  1  0
 21 22  1  0
 21 23  1  0
  7 24  1  0
 24 25  1  0
 24 26  2  0
 26 27  1  0
 26  2  1  0
 21 12  1  0
  1 28  1  0
  1 29  1  0
  1 30  1  0
  8 31  1  0
  8 32  1  0
 12 33  1  0
 13 34  1  0
 14 35  1  0
 22 36  1  0
 22 37  1  0
 22 38  1  0
 23 39  1  0
 23 40  1  0
 23 41  1  0
M  END
>  <Energy>  (4) 
40.615535094740025

>  <Real charge>  (4) 
0

>  <Mult>  (4) 
1

$$$$
mol_480 156
     RDKit          3D

 41 42  0  0  0  0  0  0  0  0999 V2000
   -6.3196   -1.4033   -1.0881 C   0  0  0  0  0  0  0  0  0  0  0  0
   -5.1537   -0.6363   -0.5498 C   0  0  0  0  0  0  0  0  0  0  0  0
   -4.1974   -0.0856   -1.4042 C   0  0  0  0  0  0  0  0  0  0  0  0
   -4.3377   -0.2190   -2.7311 F   0  0  0  0  0  0  0  0  0  0  0  0
   -3.0920    0.6022   -0.9004 C   0  0  0  0  0  0  0  0  0  0  0  0
   -2.1946    1.1184   -1.7531 F   0  0  0  0  0  0  0  0  0  0  0  0
   -2.9044    0.7568    0.4738 C   0  0  0  0  0  0  0  0  0  0  0  0
   -1.6995    1.4677    1.0067 C   0  0  0  0  0  0  0  0  0  0  0  0
   -0.6107    0.5438    0.9832 O   0  0  0  0  0  0  0  0  0  0  0  0
    0.5797    1.1051    1.3097 C   0  0  0  0  0  0  0  0  0  0  0  0
    0.7644    2.2620    1.6542 O   0  0  0  0  0  0  0  0  0  0  0  0
    1.6814    0.1200    1.2222 C   0  0  0  0  0  0  0  0  0  0  0  0
    2.9965    0.5207    0.5812 C   0  0  0  0  0  0  0  0  0  0  0  0
    4.2547    0.1053    1.2168 C   0  0  0  0  0  0  0  0  0  0  0  0
    5.4266   -0.1584    0.6080 C   0  0  0  0  0  0  0  0  0  0  0  0
    6.7733   -0.6499    1.6007 Cl  0  0  0  0  0  0  0  0  0  0  0  0
    5.7318   -0.0856   -0.8604 C   0  0  0  0  0  0  0  0  0  0  0  0
    6.0087   -1.3122   -1.3777 F   0  0  0  0  0  0  0  0  0  0  0  0
    4.7128    0.4204   -1.6045 F   0  0  0  0  0  0  0  0  0  0  0  0
    6.8111    0.7003   -1.1185 F   0  0  0  0  0  0  0  0  0  0  0  0
    2.1005   -0.4963   -0.1061 C   0  0  0  0  0  0  0  0  0  0  0  0
    1.4297   -0.0533   -1.3863 C   0  0  0  0  0  0  0  0  0  0  0  0
    2.4428   -1.9674   -0.0959 C   0  0  0  0  0  0  0  0  0  0  0  0
   -3.8466    0.1858    1.3286 C   0  0  0  0  0  0  0  0  0  0  0  0
   -3.6903    0.2934    2.6560 F   0  0  0  0  0  0  0  0  0  0  0  0
   -4.9525   -0.5019    0.8248 C   0  0  0  0  0  0  0  0  0  0  0  0
   -5.8327   -1.0429    1.6798 F   0  0  0  0  0  0  0  0  0  0  0  0
   -6.0559   -2.4599   -1.1957 H   0  0  0  0  0  0  0  0  0  0  0  0
   -7.1850   -1.3211   -0.4223 H   0  0  0  0  0  0  0  0  0  0  0  0
   -6.6283   -1.0151   -2.0644 H   0  0  0  0  0  0  0  0  0  0  0  0
   -1.4799    2.3426    0.3817 H   0  0  0  0  0  0  0  0  0  0  0  0
   -1.8728    1.8117    2.0334 H   0  0  0  0  0  0  0  0  0  0  0  0
    1.7325   -0.5136    2.1023 H   0  0  0  0  0  0  0  0  0  0  0  0
    3.0390    1.5242    0.1600 H   0  0  0  0  0  0  0  0  0  0  0  0
    4.2171    0.0173    2.3028 H   0  0  0  0  0  0  0  0  0  0  0  0
    1.2354    1.0243   -1.4050 H   0  0  0  0  0  0  0  0  0  0  0  0
    0.4738   -0.5718   -1.5149 H   0  0  0  0  0  0  0  0  0  0  0  0
    2.0655   -0.2887   -2.2463 H   0  0  0  0  0  0  0  0  0  0  0  0
    1.5452   -2.5644   -0.2898 H   0  0  0  0  0  0  0  0  0  0  0  0
    3.1779   -2.1927   -0.8754 H   0  0  0  0  0  0  0  0  0  0  0  0
    2.8532   -2.2971    0.8642 H   0  0  0  0  0  0  0  0  0  0  0  0
  1  2  1  0
  2  3  2  0
  3  4  1  0
  3  5  1  0
  5  6  1  0
  5  7  2  0
  7  8  1  0
  8  9  1  0
  9 10  1  0
 10 11  2  0
 10 12  1  0
 12 13  1  0
 13 14  1  0
 14 15  2  3
 15 16  1  0
 15 17  1  0
 17 18  1  0
 17 19  1  0
 17 20  1  0
 13 21  1  0
 21 22  1  0
 21 23  1  0
  7 24  1  0
 24 25  1  0
 24 26  2  0
 26 27  1  0
 26  2  1  0
 21 12  1  0
  1 28  1  0
  1 29  1  0
  1 30  1  0
  8 31  1  0
  8 32  1  0
 12 33  1  0
 13 34  1  0
 14 35  1  0
 22 36  1  0
 22 37  1  0
 22 38  1  0
 23 39  1  0
 23 40  1  0
 23 41  1  0
M  END
>  <Energy>  (5) 
40.64982052991383

>  <Real charge>  (5) 
0

>  <Mult>  (5) 
1

$$$$
mol_480 374
     RDKit          3D

 41 42  0  0  0  0  0  0  0  0999 V2000
    6.4332    0.6855    1.1186 C   0  0  0  0  0  0  0  0  0  0  0  0
    5.1496    0.0051    0.7626 C   0  0  0  0  0  0  0  0  0  0  0  0
    4.1107   -0.1030    1.6882 C   0  0  0  0  0  0  0  0  0  0  0  0
    4.2491    0.4380    2.9073 F   0  0  0  0  0  0  0  0  0  0  0  0
    2.9253   -0.7664    1.3665 C   0  0  0  0  0  0  0  0  0  0  0  0
    1.9445   -0.8389    2.2783 F   0  0  0  0  0  0  0  0  0  0  0  0
    2.7468   -1.3570    0.1147 C   0  0  0  0  0  0  0  0  0  0  0  0
    1.4605   -2.0395   -0.2331 C   0  0  0  0  0  0  0  0  0  0  0  0
    0.5200   -1.0259   -0.5903 O   0  0  0  0  0  0  0  0  0  0  0  0
   -0.7346   -1.5004   -0.7889 C   0  0  0  0  0  0  0  0  0  0  0  0
   -1.0824   -2.6700   -0.7404 O   0  0  0  0  0  0  0  0  0  0  0  0
   -1.6799   -0.4063   -1.1065 C   0  0  0  0  0  0  0  0  0  0  0  0
   -3.0502   -0.3868   -0.4561 C   0  0  0  0  0  0  0  0  0  0  0  0
   -4.2227   -0.0474   -1.2746 C   0  0  0  0  0  0  0  0  0  0  0  0
   -5.3527    0.5608   -0.8663 C   0  0  0  0  0  0  0  0  0  0  0  0
   -6.5954    0.8619   -2.0519 Cl  0  0  0  0  0  0  0  0  0  0  0  0
   -5.6894    1.0313    0.5193 C   0  0  0  0  0  0  0  0  0  0  0  0
   -6.8771    0.5310    0.9531 F   0  0  0  0  0  0  0  0  0  0  0  0
   -5.7906    2.3859    0.5795 F   0  0  0  0  0  0  0  0  0  0  0  0
   -4.7687    0.6762    1.4543 F   0  0  0  0  0  0  0  0  0  0  0  0
   -2.0253    0.6738   -0.0896 C   0  0  0  0  0  0  0  0  0  0  0  0
   -2.1464    2.0860   -0.6113 C   0  0  0  0  0  0  0  0  0  0  0  0
   -1.4485    0.6055    1.3061 C   0  0  0  0  0  0  0  0  0  0  0  0
    3.7873   -1.2559   -0.8082 C   0  0  0  0  0  0  0  0  0  0  0  0
    3.6529   -1.8063   -2.0235 F   0  0  0  0  0  0  0  0  0  0  0  0
    4.9732   -0.5927   -0.4864 C   0  0  0  0  0  0  0  0  0  0  0  0
    5.9568   -0.5310   -1.3958 F   0  0  0  0  0  0  0  0  0  0  0  0
    7.1304   -0.0351    1.5569 H   0  0  0  0  0  0  0  0  0  0  0  0
    6.8983    1.1343    0.2347 H   0  0  0  0  0  0  0  0  0  0  0  0
    6.2631    1.4943    1.8369 H   0  0  0  0  0  0  0  0  0  0  0  0
    1.1026   -2.6150    0.6302 H   0  0  0  0  0  0  0  0  0  0  0  0
    1.5999   -2.7293   -1.0740 H   0  0  0  0  0  0  0  0  0  0  0  0
   -1.6225   -0.1076   -2.1487 H   0  0  0  0  0  0  0  0  0  0  0  0
   -3.2473   -1.1730    0.2714 H   0  0  0  0  0  0  0  0  0  0  0  0
   -4.1545   -0.3385   -2.3230 H   0  0  0  0  0  0  0  0  0  0  0  0
   -2.8530    2.6581   -0.0010 H   0  0  0  0  0  0  0  0  0  0  0  0
   -1.1739    2.5880   -0.5689 H   0  0  0  0  0  0  0  0  0  0  0  0
   -2.4878    2.1225   -1.6510 H   0  0  0  0  0  0  0  0  0  0  0  0
   -2.0568    1.2007    1.9952 H   0  0  0  0  0  0  0  0  0  0  0  0
   -1.4156   -0.4177    1.6950 H   0  0  0  0  0  0  0  0  0  0  0  0
   -0.4289    1.0046    1.3170 H   0  0  0  0  0  0  0  0  0  0  0  0
  1  2  1  0
  2  3  2  0
  3  4  1  0
  3  5  1  0
  5  6  1  0
  5  7  2  0
  7  8  1  0
  8  9  1  0
  9 10  1  0
 10 11  2  0
 10 12  1  0
 12 13  1  0
 13 14  1  0
 14 15  2  3
 15 16  1  0
 15 17  1  0
 17 18  1  0
 17 19  1  0
 17 20  1  0
 13 21  1  0
 21 22  1  0
 21 23  1  0
  7 24  1  0
 24 25  1  0
 24 26  2  0
 26 27  1  0
 26  2  1  0
 21 12  1  0
  1 28  1  0
  1 29  1  0
  1 30  1  0
  8 31  1  0
  8 32  1  0
 12 33  1  0
 13 34  1  0
 14 35  1  0
 22 36  1  0
 22 37  1  0
 22 38  1  0
 23 39  1  0
 23 40  1  0
 23 41  1  0
M  END
>  <Energy>  (6) 
40.66332601162854

>  <Real charge>  (6) 
0

>  <Mult>  (6) 
1

$$$$
mol_480 197
     RDKit          3D

 41 42  0  0  0  0  0  0  0  0999 V2000
    6.5735   -0.3004   -1.1065 C   0  0  0  0  0  0  0  0  0  0  0  0
    5.2622   -0.5588   -0.4348 C   0  0  0  0  0  0  0  0  0  0  0  0
    4.6108   -1.7854   -0.5742 C   0  0  0  0  0  0  0  0  0  0  0  0
    5.1809   -2.7602   -1.2974 F   0  0  0  0  0  0  0  0  0  0  0  0
    3.3711   -2.0165    0.0253 C   0  0  0  0  0  0  0  0  0  0  0  0
    2.7791   -3.2092   -0.1318 F   0  0  0  0  0  0  0  0  0  0  0  0
    2.7414   -1.0268    0.7795 C   0  0  0  0  0  0  0  0  0  0  0  0
    1.3977   -1.2569    1.3983 C   0  0  0  0  0  0  0  0  0  0  0  0
    0.4178   -0.7088    0.5157 O   0  0  0  0  0  0  0  0  0  0  0  0
   -0.8388   -0.7327    1.0268 C   0  0  0  0  0  0  0  0  0  0  0  0
   -1.1683   -1.1906    2.1100 O   0  0  0  0  0  0  0  0  0  0  0  0
   -1.8007   -0.1009    0.0947 C   0  0  0  0  0  0  0  0  0  0  0  0
   -3.0492    0.5744    0.6265 C   0  0  0  0  0  0  0  0  0  0  0  0
   -4.3276    0.4135   -0.0846 C   0  0  0  0  0  0  0  0  0  0  0  0
   -5.0660   -0.7048   -0.2218 C   0  0  0  0  0  0  0  0  0  0  0  0
   -4.5384   -2.2079    0.4718 Cl  0  0  0  0  0  0  0  0  0  0  0  0
   -6.3742   -0.7766   -0.9542 C   0  0  0  0  0  0  0  0  0  0  0  0
   -6.3299   -1.6470   -1.9964 F   0  0  0  0  0  0  0  0  0  0  0  0
   -6.7421    0.4252   -1.4770 F   0  0  0  0  0  0  0  0  0  0  0  0
   -7.3945   -1.1714   -0.1496 F   0  0  0  0  0  0  0  0  0  0  0  0
   -1.9342    1.4144    0.0221 C   0  0  0  0  0  0  0  0  0  0  0  0
   -2.0676    2.0173   -1.3562 C   0  0  0  0  0  0  0  0  0  0  0  0
   -1.1379    2.2785    0.9727 C   0  0  0  0  0  0  0  0  0  0  0  0
    3.3807    0.2078    0.8993 C   0  0  0  0  0  0  0  0  0  0  0  0
    2.7956    1.1915    1.5985 F   0  0  0  0  0  0  0  0  0  0  0  0
    4.6200    0.4391    0.2997 C   0  0  0  0  0  0  0  0  0  0  0  0
    5.1981    1.6418    0.4321 F   0  0  0  0  0  0  0  0  0  0  0  0
    7.1707    0.4204   -0.5383 H   0  0  0  0  0  0  0  0  0  0  0  0
    6.4076    0.0946   -2.1135 H   0  0  0  0  0  0  0  0  0  0  0  0
    7.1648   -1.2190   -1.1803 H   0  0  0  0  0  0  0  0  0  0  0  0
    1.3538   -0.7671    2.3794 H   0  0  0  0  0  0  0  0  0  0  0  0
    1.2134   -2.3287    1.5394 H   0  0  0  0  0  0  0  0  0  0  0  0
   -1.8941   -0.6517   -0.8364 H   0  0  0  0  0  0  0  0  0  0  0  0
   -3.1672    0.6080    1.7084 H   0  0  0  0  0  0  0  0  0  0  0  0
   -4.7262    1.3290   -0.5233 H   0  0  0  0  0  0  0  0  0  0  0  0
   -2.6496    2.9437   -1.3106 H   0  0  0  0  0  0  0  0  0  0  0  0
   -1.0783    2.2539   -1.7623 H   0  0  0  0  0  0  0  0  0  0  0  0
   -2.5587    1.3419   -2.0646 H   0  0  0  0  0  0  0  0  0  0  0  0
   -1.1070    1.8664    1.9868 H   0  0  0  0  0  0  0  0  0  0  0  0
   -0.1068    2.3825    0.6188 H   0  0  0  0  0  0  0  0  0  0  0  0
   -1.5818    3.2775    1.0366 H   0  0  0  0  0  0  0  0  0  0  0  0
  1  2  1  0
  2  3  2  0
  3  4  1  0
  3  5  1  0
  5  6  1  0
  5  7  2  0
  7  8  1  0
  8  9  1  0
  9 10  1  0
 10 11  2  0
 10 12  1  0
 12 13  1  0
 13 14  1  0
 14 15  2  3
 15 16  1  0
 15 17  1  0
 17 18  1  0
 17 19  1  0
 17 20  1  0
 13 21  1  0
 21 22  1  0
 21 23  1  0
  7 24  1  0
 24 25  1  0
 24 26  2  0
 26 27  1  0
 26  2  1  0
 21 12  1  0
  1 28  1  0
  1 29  1  0
  1 30  1  0
  8 31  1  0
  8 32  1  0
 12 33  1  0
 13 34  1  0
 14 35  1  0
 22 36  1  0
 22 37  1  0
 22 38  1  0
 23 39  1  0
 23 40  1  0
 23 41  1  0
M  END
>  <Energy>  (7) 
40.89420052655674

>  <Real charge>  (7) 
0

>  <Mult>  (7) 
1

$$$$
mol_480 454
     RDKit          3D

 41 42  0  0  0  0  0  0  0  0999 V2000
    6.4327   -1.2219   -1.3439 C   0  0  0  0  0  0  0  0  0  0  0  0
    5.2037   -0.5673   -0.7974 C   0  0  0  0  0  0  0  0  0  0  0  0
    4.4882   -1.1419    0.2540 C   0  0  0  0  0  0  0  0  0  0  0  0
    4.8873   -2.3158    0.7648 F   0  0  0  0  0  0  0  0  0  0  0  0
    3.3600   -0.5146    0.7855 C   0  0  0  0  0  0  0  0  0  0  0  0
    2.6917   -1.1040    1.7879 F   0  0  0  0  0  0  0  0  0  0  0  0
    2.9206    0.7152    0.2937 C   0  0  0  0  0  0  0  0  0  0  0  0
    1.6918    1.3667    0.8480 C   0  0  0  0  0  0  0  0  0  0  0  0
    0.5618    0.7488    0.2307 O   0  0  0  0  0  0  0  0  0  0  0  0
   -0.6235    1.1545    0.7516 C   0  0  0  0  0  0  0  0  0  0  0  0
   -0.7773    1.9834    1.6353 O   0  0  0  0  0  0  0  0  0  0  0  0
   -1.7532    0.4389    0.1152 C   0  0  0  0  0  0  0  0  0  0  0  0
   -3.0344    0.1934    0.8872 C   0  0  0  0  0  0  0  0  0  0  0  0
   -4.3345    0.3420    0.2138 C   0  0  0  0  0  0  0  0  0  0  0  0
   -4.9042    1.4706   -0.2513 C   0  0  0  0  0  0  0  0  0  0  0  0
   -4.0918    2.9998   -0.1076 Cl  0  0  0  0  0  0  0  0  0  0  0  0
   -6.2491    1.5345   -0.9146 C   0  0  0  0  0  0  0  0  0  0  0  0
   -6.1711    2.0106   -2.1846 F   0  0  0  0  0  0  0  0  0  0  0  0
   -6.8425    0.3125   -1.0017 F   0  0  0  0  0  0  0  0  0  0  0  0
   -7.1177    2.3338   -0.2431 F   0  0  0  0  0  0  0  0  0  0  0  0
   -2.1215   -0.9747    0.5461 C   0  0  0  0  0  0  0  0  0  0  0  0
   -1.3802   -1.6202    1.6941 C   0  0  0  0  0  0  0  0  0  0  0  0
   -2.4735   -1.9479   -0.5539 C   0  0  0  0  0  0  0  0  0  0  0  0
    3.6391    1.2937   -0.7521 C   0  0  0  0  0  0  0  0  0  0  0  0
    3.2466    2.4728   -1.2554 F   0  0  0  0  0  0  0  0  0  0  0  0
    4.7679    0.6664   -1.2835 C   0  0  0  0  0  0  0  0  0  0  0  0
    5.4416    1.2626   -2.2779 F   0  0  0  0  0  0  0  0  0  0  0  0
    6.3634   -2.3122   -1.2693 H   0  0  0  0  0  0  0  0  0  0  0  0
    7.3144   -0.8855   -0.7900 H   0  0  0  0  0  0  0  0  0  0  0  0
    6.5679   -0.9811   -2.4035 H   0  0  0  0  0  0  0  0  0  0  0  0
    1.6906    2.4420    0.6332 H   0  0  0  0  0  0  0  0  0  0  0  0
    1.6618    1.2321    1.9368 H   0  0  0  0  0  0  0  0  0  0  0  0
   -1.8487    0.6761   -0.9401 H   0  0  0  0  0  0  0  0  0  0  0  0
   -3.0541    0.5232    1.9247 H   0  0  0  0  0  0  0  0  0  0  0  0
   -4.9069   -0.5810    0.1139 H   0  0  0  0  0  0  0  0  0  0  0  0
   -1.1919   -0.9218    2.5162 H   0  0  0  0  0  0  0  0  0  0  0  0
   -1.9630   -2.4547    2.0981 H   0  0  0  0  0  0  0  0  0  0  0  0
   -0.4148   -2.0086    1.3529 H   0  0  0  0  0  0  0  0  0  0  0  0
   -2.9204   -1.4552   -1.4238 H   0  0  0  0  0  0  0  0  0  0  0  0
   -1.5741   -2.4687   -0.8996 H   0  0  0  0  0  0  0  0  0  0  0  0
   -3.1826   -2.6966   -0.1858 H   0  0  0  0  0  0  0  0  0  0  0  0
  1  2  1  0
  2  3  2  0
  3  4  1  0
  3  5  1  0
  5  6  1  0
  5  7  2  0
  7  8  1  0
  8  9  1  0
  9 10  1  0
 10 11  2  0
 10 12  1  0
 12 13  1  0
 13 14  1  0
 14 15  2  3
 15 16  1  0
 15 17  1  0
 17 18  1  0
 17 19  1  0
 17 20  1  0
 13 21  1  0
 21 22  1  0
 21 23  1  0
  7 24  1  0
 24 25  1  0
 24 26  2  0
 26 27  1  0
 26  2  1  0
 21 12  1  0
  1 28  1  0
  1 29  1  0
  1 30  1  0
  8 31  1  0
  8 32  1  0
 12 33  1  0
 13 34  1  0
 14 35  1  0
 22 36  1  0
 22 37  1  0
 22 38  1  0
 23 39  1  0
 23 40  1  0
 23 41  1  0
M  END
>  <Energy>  (8) 
40.90732752070797

>  <Real charge>  (8) 
0

>  <Mult>  (8) 
1

$$$$
mol_480 217
     RDKit          3D

 41 42  0  0  0  0  0  0  0  0999 V2000
   -5.6066    2.7097    0.7707 C   0  0  0  0  0  0  0  0  0  0  0  0
   -4.6302    1.5794    0.8506 C   0  0  0  0  0  0  0  0  0  0  0  0
   -4.1883    0.9264   -0.3010 C   0  0  0  0  0  0  0  0  0  0  0  0
   -4.6662    1.2963   -1.4980 F   0  0  0  0  0  0  0  0  0  0  0  0
   -3.2521   -0.1068   -0.2295 C   0  0  0  0  0  0  0  0  0  0  0  0
   -2.8519   -0.7098   -1.3584 F   0  0  0  0  0  0  0  0  0  0  0  0
   -2.7247   -0.5174    0.9951 C   0  0  0  0  0  0  0  0  0  0  0  0
   -1.6960   -1.6029    1.0645 C   0  0  0  0  0  0  0  0  0  0  0  0
   -0.4180   -0.9991    0.8587 O   0  0  0  0  0  0  0  0  0  0  0  0
    0.6021   -1.8937    0.8403 C   0  0  0  0  0  0  0  0  0  0  0  0
    0.5059   -3.0992    1.0104 O   0  0  0  0  0  0  0  0  0  0  0  0
    1.9118   -1.2370    0.6186 C   0  0  0  0  0  0  0  0  0  0  0  0
    2.0568   -0.0629   -0.3300 C   0  0  0  0  0  0  0  0  0  0  0  0
    2.9162    1.0639    0.0596 C   0  0  0  0  0  0  0  0  0  0  0  0
    3.6122    1.8773   -0.7574 C   0  0  0  0  0  0  0  0  0  0  0  0
    4.5724    3.1396   -0.0327 Cl  0  0  0  0  0  0  0  0  0  0  0  0
    3.6723    1.8350   -2.2574 C   0  0  0  0  0  0  0  0  0  0  0  0
    3.3531    3.0345   -2.8129 F   0  0  0  0  0  0  0  0  0  0  0  0
    2.8237    0.9283   -2.8104 F   0  0  0  0  0  0  0  0  0  0  0  0
    4.9161    1.5156   -2.7032 F   0  0  0  0  0  0  0  0  0  0  0  0
    2.6610   -1.4090   -0.6961 C   0  0  0  0  0  0  0  0  0  0  0  0
    2.0088   -2.1625   -1.8323 C   0  0  0  0  0  0  0  0  0  0  0  0
    4.1505   -1.6436   -0.6078 C   0  0  0  0  0  0  0  0  0  0  0  0
   -3.1468    0.1516    2.1438 C   0  0  0  0  0  0  0  0  0  0  0  0
   -2.6448   -0.1978    3.3371 F   0  0  0  0  0  0  0  0  0  0  0  0
   -4.0831    1.1849    2.0726 C   0  0  0  0  0  0  0  0  0  0  0  0
   -4.4582    1.8081    3.1992 F   0  0  0  0  0  0  0  0  0  0  0  0
   -6.2171    2.7664    1.6780 H   0  0  0  0  0  0  0  0  0  0  0  0
   -5.0739    3.6571    0.6438 H   0  0  0  0  0  0  0  0  0  0  0  0
   -6.2946    2.5757   -0.0706 H   0  0  0  0  0  0  0  0  0  0  0  0
   -1.8927   -2.3566    0.2916 H   0  0  0  0  0  0  0  0  0  0  0  0
   -1.7260   -2.0974    2.0431 H   0  0  0  0  0  0  0  0  0  0  0  0
    2.5166   -1.2358    1.5207 H   0  0  0  0  0  0  0  0  0  0  0  0
    1.1620    0.2458   -0.8677 H   0  0  0  0  0  0  0  0  0  0  0  0
    2.9782    1.2500    1.1320 H   0  0  0  0  0  0  0  0  0  0  0  0
    2.4896   -1.9043   -2.7818 H   0  0  0  0  0  0  0  0  0  0  0  0
    2.1083   -3.2421   -1.6793 H   0  0  0  0  0  0  0  0  0  0  0  0
    0.9428   -1.9309   -1.9293 H   0  0  0  0  0  0  0  0  0  0  0  0
    4.3598   -2.7164   -0.5371 H   0  0  0  0  0  0  0  0  0  0  0  0
    4.6009   -1.1644    0.2678 H   0  0  0  0  0  0  0  0  0  0  0  0
    4.6501   -1.2562   -1.5018 H   0  0  0  0  0  0  0  0  0  0  0  0
  1  2  1  0
  2  3  2  0
  3  4  1  0
  3  5  1  0
  5  6  1  0
  5  7  2  0
  7  8  1  0
  8  9  1  0
  9 10  1  0
 10 11  2  0
 10 12  1  0
 12 13  1  0
 13 14  1  0
 14 15  2  3
 15 16  1  0
 15 17  1  0
 17 18  1  0
 17 19  1  0
 17 20  1  0
 13 21  1  0
 21 22  1  0
 21 23  1  0
  7 24  1  0
 24 25  1  0
 24 26  2  0
 26 27  1  0
 26  2  1  0
 21 12  1  0
  1 28  1  0
  1 29  1  0
  1 30  1  0
  8 31  1  0
  8 32  1  0
 12 33  1  0
 13 34  1  0
 14 35  1  0
 22 36  1  0
 22 37  1  0
 22 38  1  0
 23 39  1  0
 23 40  1  0
 23 41  1  0
M  END
>  <Energy>  (9) 
40.93478338935665

>  <Real charge>  (9) 
0

>  <Mult>  (9) 
1

$$$$
mol_480 438
     RDKit          3D

 41 42  0  0  0  0  0  0  0  0999 V2000
    5.7969   -2.1852   -1.0146 C   0  0  0  0  0  0  0  0  0  0  0  0
    4.7637   -1.2553   -0.4622 C   0  0  0  0  0  0  0  0  0  0  0  0
    3.9340   -1.6439    0.5906 C   0  0  0  0  0  0  0  0  0  0  0  0
    4.0399   -2.8810    1.0970 F   0  0  0  0  0  0  0  0  0  0  0  0
    2.9915   -0.7650    1.1277 C   0  0  0  0  0  0  0  0  0  0  0  0
    2.2029   -1.1798    2.1300 F   0  0  0  0  0  0  0  0  0  0  0  0
    2.8604    0.5359    0.6412 C   0  0  0  0  0  0  0  0  0  0  0  0
    1.8263    1.4647    1.1976 C   0  0  0  0  0  0  0  0  0  0  0  0
    0.6040    1.2138    0.5024 O   0  0  0  0  0  0  0  0  0  0  0  0
   -0.4357    1.9568    0.9588 C   0  0  0  0  0  0  0  0  0  0  0  0
   -0.3874    2.7949    1.8457 O   0  0  0  0  0  0  0  0  0  0  0  0
   -1.6889    1.6683    0.2225 C   0  0  0  0  0  0  0  0  0  0  0  0
   -2.0383    0.2615   -0.2225 C   0  0  0  0  0  0  0  0  0  0  0  0
   -2.6309    0.0632   -1.5527 C   0  0  0  0  0  0  0  0  0  0  0  0
   -3.4860   -0.9077   -1.9265 C   0  0  0  0  0  0  0  0  0  0  0  0
   -4.0541   -0.9089   -3.5751 Cl  0  0  0  0  0  0  0  0  0  0  0  0
   -4.0323   -2.0220   -1.0807 C   0  0  0  0  0  0  0  0  0  0  0  0
   -3.8145   -3.2408   -1.6432 F   0  0  0  0  0  0  0  0  0  0  0  0
   -3.4849   -2.0799    0.1623 F   0  0  0  0  0  0  0  0  0  0  0  0
   -5.3749   -1.9075   -0.9020 F   0  0  0  0  0  0  0  0  0  0  0  0
   -2.8352    0.9212    0.8913 C   0  0  0  0  0  0  0  0  0  0  0  0
   -4.2295    1.4473    0.6446 C   0  0  0  0  0  0  0  0  0  0  0  0
   -2.6498    0.3645    2.2840 C   0  0  0  0  0  0  0  0  0  0  0  0
    3.6934    0.9270   -0.4069 C   0  0  0  0  0  0  0  0  0  0  0  0
    3.5929    2.1673   -0.9067 F   0  0  0  0  0  0  0  0  0  0  0  0
    4.6361    0.0483   -0.9442 C   0  0  0  0  0  0  0  0  0  0  0  0
    5.4296    0.4677   -1.9405 F   0  0  0  0  0  0  0  0  0  0  0  0
    6.7351   -2.0739   -0.4625 H   0  0  0  0  0  0  0  0  0  0  0  0
    5.4665   -3.2268   -0.9433 H   0  0  0  0  0  0  0  0  0  0  0  0
    5.9839   -1.9802   -2.0739 H   0  0  0  0  0  0  0  0  0  0  0  0
    2.1324    2.5085    1.0566 H   0  0  0  0  0  0  0  0  0  0  0  0
    1.6998    1.2850    2.2726 H   0  0  0  0  0  0  0  0  0  0  0  0
   -1.9663    2.4892   -0.4322 H   0  0  0  0  0  0  0  0  0  0  0  0
   -1.3442   -0.5282    0.0600 H   0  0  0  0  0  0  0  0  0  0  0  0
   -2.3267    0.7880   -2.3081 H   0  0  0  0  0  0  0  0  0  0  0  0
   -4.3313    1.9265   -0.3347 H   0  0  0  0  0  0  0  0  0  0  0  0
   -4.4905    2.1937    1.4024 H   0  0  0  0  0  0  0  0  0  0  0  0
   -4.9589    0.6327    0.7018 H   0  0  0  0  0  0  0  0  0  0  0  0
   -1.6578   -0.0765    2.4288 H   0  0  0  0  0  0  0  0  0  0  0  0
   -3.3899   -0.4187    2.4792 H   0  0  0  0  0  0  0  0  0  0  0  0
   -2.7812    1.1550    3.0302 H   0  0  0  0  0  0  0  0  0  0  0  0
  1  2  1  0
  2  3  2  0
  3  4  1  0
  3  5  1  0
  5  6  1  0
  5  7  2  0
  7  8  1  0
  8  9  1  0
  9 10  1  0
 10 11  2  0
 10 12  1  0
 12 13  1  0
 13 14  1  0
 14 15  2  3
 15 16  1  0
 15 17  1  0
 17 18  1  0
 17 19  1  0
 17 20  1  0
 13 21  1  0
 21 22  1  0
 21 23  1  0
  7 24  1  0
 24 25  1  0
 24 26  2  0
 26 27  1  0
 26  2  1  0
 21 12  1  0
  1 28  1  0
  1 29  1  0
  1 30  1  0
  8 31  1  0
  8 32  1  0
 12 33  1  0
 13 34  1  0
 14 35  1  0
 22 36  1  0
 22 37  1  0
 22 38  1  0
 23 39  1  0
 23 40  1  0
 23 41  1  0
M  END
>  <Energy>  (10) 
40.950459637913035

>  <Real charge>  (10) 
0

>  <Mult>  (10) 
1

$$$$
