mol_982 17
     RDKit          3D

 29 31  0  0  0  0  0  0  0  0999 V2000
   -0.2240   -0.6303    1.9209 O   0  0  0  0  0  0  0  0  0  0  0  0
   -0.6838   -0.3607    0.8280 C   0  0  0  0  0  0  0  0  0  0  0  0
   -0.0281   -0.0980   -0.3443 N   0  0  0  0  0  0  0  0  0  0  0  0
    1.4143    0.0273   -0.4844 C   0  0  0  0  0  0  0  0  0  0  0  0
    2.2050   -1.1427    0.0949 C   0  0  0  0  0  0  0  0  0  0  0  0
    3.6892   -0.9120   -0.1476 C   0  0  0  0  0  0  0  0  0  0  0  0
    4.1421    0.4070    0.4353 C   0  0  0  0  0  0  0  0  0  0  0  0
    5.2951    0.5958    0.8116 O   0  0  0  0  0  0  0  0  0  0  0  0
    3.2112    1.4153    0.4721 N   0  0  0  0  0  0  0  0  0  0  0  0
    1.8730    1.3426    0.1540 C   0  0  0  0  0  0  0  0  0  0  0  0
    1.1381    2.3126    0.3300 O   0  0  0  0  0  0  0  0  0  0  0  0
   -0.9017    0.2540   -1.3385 C   0  0  0  0  0  0  0  0  0  0  0  0
   -0.6605    0.5925   -2.4815 O   0  0  0  0  0  0  0  0  0  0  0  0
   -2.2455    0.1428   -0.7762 C   0  0  0  0  0  0  0  0  0  0  0  0
   -3.4806    0.3568   -1.3556 C   0  0  0  0  0  0  0  0  0  0  0  0
   -4.6057    0.1731   -0.5455 C   0  0  0  0  0  0  0  0  0  0  0  0
   -4.4701   -0.2116    0.8051 C   0  0  0  0  0  0  0  0  0  0  0  0
   -3.2070   -0.4194    1.3687 C   0  0  0  0  0  0  0  0  0  0  0  0
   -2.1124   -0.2352    0.5471 C   0  0  0  0  0  0  0  0  0  0  0  0
    1.6411    0.1163   -1.5552 H   0  0  0  0  0  0  0  0  0  0  0  0
    1.8901   -2.0838   -0.3702 H   0  0  0  0  0  0  0  0  0  0  0  0
    2.0377   -1.2415    1.1733 H   0  0  0  0  0  0  0  0  0  0  0  0
    3.9175   -0.9098   -1.2191 H   0  0  0  0  0  0  0  0  0  0  0  0
    4.2641   -1.7159    0.3247 H   0  0  0  0  0  0  0  0  0  0  0  0
    3.5201    2.2867    0.8818 H   0  0  0  0  0  0  0  0  0  0  0  0
   -3.5697    0.6582   -2.3943 H   0  0  0  0  0  0  0  0  0  0  0  0
   -5.6000    0.3327   -0.9594 H   0  0  0  0  0  0  0  0  0  0  0  0
   -5.3615   -0.3437    1.4162 H   0  0  0  0  0  0  0  0  0  0  0  0
   -3.0879   -0.7090    2.4077 H   0  0  0  0  0  0  0  0  0  0  0  0
  1  2  2  0
  2  3  1  0
  3  4  1  0
  4  5  1  0
  5  6  1  0
  6  7  1  0
  7  8  2  0
  7  9  1  0
  9 10  1  0
 10 11  2  0
  3 12  1  0
 12 13  2  0
 12 14  1  0
 14 15  2  0
 15 16  1  0
 16 17  2  0
 17 18  1  0
 18 19  2  0
 19  2  1  0
 10  4  1  0
 19 14  1  0
  4 20  1  0
  5 21  1  0
  5 22  1  0
  6 23  1  0
  6 24  1  0
  9 25  1  0
 15 26  1  0
 16 27  1  0
 17 28  1  0
 18 29  1  0
M  END
>  <Energy>  (1) 
-43.15851377027353

>  <Real charge>  (1) 
0

>  <Mult>  (1) 
1

$$$$
