mol_164 117
     RDKit          3D

 29 29  0  0  0  0  0  0  0  0999 V2000
    5.2314    0.6228    1.0895 C   0  0  0  0  0  0  0  0  0  0  0  0
    4.2831    0.0465    0.0504 C   0  0  0  0  0  0  0  0  0  0  0  0
    2.8251    0.2288    0.4620 C   0  0  0  0  0  0  0  0  0  0  0  0
    1.8701   -0.3478   -0.5774 C   0  0  0  0  0  0  0  0  0  0  0  0
    0.5300   -0.1348   -0.1136 O   0  0  0  0  0  0  0  0  0  0  0  0
   -0.4293   -0.6022   -0.9510 C   0  0  0  0  0  0  0  0  0  0  0  0
   -0.2338   -1.1656   -2.0165 O   0  0  0  0  0  0  0  0  0  0  0  0
   -1.7845   -0.3399   -0.3949 C   0  0  0  0  0  0  0  0  0  0  0  0
   -1.9849    0.3166    0.8248 C   0  0  0  0  0  0  0  0  0  0  0  0
   -3.2833    0.5385    1.2983 C   0  0  0  0  0  0  0  0  0  0  0  0
   -4.3940    0.0754    0.5884 C   0  0  0  0  0  0  0  0  0  0  0  0
   -5.6860    0.4073    1.0076 N   0  0  0  0  0  0  0  0  0  0  0  0
   -4.1905   -0.5258   -0.6557 C   0  0  0  0  0  0  0  0  0  0  0  0
   -2.8969   -0.7529   -1.1372 C   0  0  0  0  0  0  0  0  0  0  0  0
    5.0997    0.1289    2.0576 H   0  0  0  0  0  0  0  0  0  0  0  0
    5.0604    1.6955    1.2247 H   0  0  0  0  0  0  0  0  0  0  0  0
    6.2701    0.4814    0.7746 H   0  0  0  0  0  0  0  0  0  0  0  0
    4.5017   -1.0192   -0.0842 H   0  0  0  0  0  0  0  0  0  0  0  0
    4.4626    0.5387   -0.9125 H   0  0  0  0  0  0  0  0  0  0  0  0
    2.6017    1.2930    0.6090 H   0  0  0  0  0  0  0  0  0  0  0  0
    2.6404   -0.2525    1.4307 H   0  0  0  0  0  0  0  0  0  0  0  0
    2.0090    0.1592   -1.5394 H   0  0  0  0  0  0  0  0  0  0  0  0
    2.0486   -1.4227   -0.6984 H   0  0  0  0  0  0  0  0  0  0  0  0
   -1.1441    0.6748    1.4133 H   0  0  0  0  0  0  0  0  0  0  0  0
   -3.4184    1.0795    2.2316 H   0  0  0  0  0  0  0  0  0  0  0  0
   -5.7746    0.5429    2.0098 H   0  0  0  0  0  0  0  0  0  0  0  0
   -6.4100   -0.2001    0.6361 H   0  0  0  0  0  0  0  0  0  0  0  0
   -5.0395   -0.8254   -1.2651 H   0  0  0  0  0  0  0  0  0  0  0  0
   -2.7642   -1.2410   -2.1008 H   0  0  0  0  0  0  0  0  0  0  0  0
  1  2  1  0
  2  3  1  0
  3  4  1  0
  4  5  1  0
  5  6  1  0
  6  7  2  0
  6  8  1  0
  8  9  2  0
  9 10  1  0
 10 11  2  0
 11 12  1  0
 11 13  1  0
 13 14  2  0
 14  8  1  0
  1 15  1  0
  1 16  1  0
  1 17  1  0
  2 18  1  0
  2 19  1  0
  3 20  1  0
  3 21  1  0
  4 22  1  0
  4 23  1  0
  9 24  1  0
 10 25  1  0
 12 26  1  0
 12 27  1  0
 13 28  1  0
 14 29  1  0
M  END
>  <Energy>  (1) 
16.47479388998985

>  <Real charge>  (1) 
0

>  <Mult>  (1) 
1

$$$$
mol_164 192
     RDKit          3D

 29 29  0  0  0  0  0  0  0  0999 V2000
   -4.4321    1.4511    0.2540 C   0  0  0  0  0  0  0  0  0  0  0  0
   -3.2666    0.6738   -0.3374 C   0  0  0  0  0  0  0  0  0  0  0  0
   -3.1353   -0.7100    0.3031 C   0  0  0  0  0  0  0  0  0  0  0  0
   -1.9913   -1.5194   -0.3019 C   0  0  0  0  0  0  0  0  0  0  0  0
   -0.7525   -0.8518   -0.0305 O   0  0  0  0  0  0  0  0  0  0  0  0
    0.3399   -1.4738   -0.5392 C   0  0  0  0  0  0  0  0  0  0  0  0
    0.3372   -2.5177   -1.1723 O   0  0  0  0  0  0  0  0  0  0  0  0
    1.5748   -0.7076   -0.2186 C   0  0  0  0  0  0  0  0  0  0  0  0
    1.5504    0.4990    0.4903 C   0  0  0  0  0  0  0  0  0  0  0  0
    2.7436    1.1790    0.7610 C   0  0  0  0  0  0  0  0  0  0  0  0
    3.9753    0.6493    0.3681 C   0  0  0  0  0  0  0  0  0  0  0  0
    5.1475    1.3932    0.5360 N   0  0  0  0  0  0  0  0  0  0  0  0
    3.9888   -0.5234   -0.3904 C   0  0  0  0  0  0  0  0  0  0  0  0
    2.8020   -1.2109   -0.6654 C   0  0  0  0  0  0  0  0  0  0  0  0
   -4.5093    2.4357   -0.2177 H   0  0  0  0  0  0  0  0  0  0  0  0
   -5.3776    0.9229    0.0941 H   0  0  0  0  0  0  0  0  0  0  0  0
   -4.2986    1.5995    1.3303 H   0  0  0  0  0  0  0  0  0  0  0  0
   -3.4158    0.5698   -1.4184 H   0  0  0  0  0  0  0  0  0  0  0  0
   -2.3449    1.2484   -0.1909 H   0  0  0  0  0  0  0  0  0  0  0  0
   -4.0719   -1.2656    0.1785 H   0  0  0  0  0  0  0  0  0  0  0  0
   -2.9615   -0.5872    1.3791 H   0  0  0  0  0  0  0  0  0  0  0  0
   -2.1308   -1.6201   -1.3848 H   0  0  0  0  0  0  0  0  0  0  0  0
   -1.9720   -2.5154    0.1555 H   0  0  0  0  0  0  0  0  0  0  0  0
    0.6123    0.9324    0.8273 H   0  0  0  0  0  0  0  0  0  0  0  0
    2.7004    2.1310    1.2840 H   0  0  0  0  0  0  0  0  0  0  0  0
    5.1246    2.0298    1.3263 H   0  0  0  0  0  0  0  0  0  0  0  0
    5.9967    0.8370    0.5143 H   0  0  0  0  0  0  0  0  0  0  0  0
    4.9263   -0.9160   -0.7760 H   0  0  0  0  0  0  0  0  0  0  0  0
    2.8407   -2.1331   -1.2419 H   0  0  0  0  0  0  0  0  0  0  0  0
  1  2  1  0
  2  3  1  0
  3  4  1  0
  4  5  1  0
  5  6  1  0
  6  7  2  0
  6  8  1  0
  8  9  2  0
  9 10  1  0
 10 11  2  0
 11 12  1  0
 11 13  1  0
 13 14  2  0
 14  8  1  0
  1 15  1  0
  1 16  1  0
  1 17  1  0
  2 18  1  0
  2 19  1  0
  3 20  1  0
  3 21  1  0
  4 22  1  0
  4 23  1  0
  9 24  1  0
 10 25  1  0
 12 26  1  0
 12 27  1  0
 13 28  1  0
 14 29  1  0
M  END
>  <Energy>  (2) 
16.61649910072515

>  <Real charge>  (2) 
0

>  <Mult>  (2) 
1

$$$$
mol_164 335
     RDKit          3D

 29 29  0  0  0  0  0  0  0  0999 V2000
    5.0528   -0.2326    0.6667 C   0  0  0  0  0  0  0  0  0  0  0  0
    4.1768    0.0923   -0.5326 C   0  0  0  0  0  0  0  0  0  0  0  0
    2.7035    0.1743   -0.1432 C   0  0  0  0  0  0  0  0  0  0  0  0
    1.8230    0.5027   -1.3451 C   0  0  0  0  0  0  0  0  0  0  0  0
    0.4529    0.6233   -0.9314 O   0  0  0  0  0  0  0  0  0  0  0  0
   -0.2584   -0.5314   -0.9038 C   0  0  0  0  0  0  0  0  0  0  0  0
    0.1623   -1.6401   -1.1945 O   0  0  0  0  0  0  0  0  0  0  0  0
   -1.6561   -0.2744   -0.4616 C   0  0  0  0  0  0  0  0  0  0  0  0
   -2.1160    1.0020   -0.1179 C   0  0  0  0  0  0  0  0  0  0  0  0
   -3.4413    1.1841    0.2943 C   0  0  0  0  0  0  0  0  0  0  0  0
   -4.3347    0.1106    0.3301 C   0  0  0  0  0  0  0  0  0  0  0  0
   -5.6187    0.2803    0.8573 N   0  0  0  0  0  0  0  0  0  0  0  0
   -3.8552   -1.1695    0.0438 C   0  0  0  0  0  0  0  0  0  0  0  0
   -2.5328   -1.3617   -0.3699 C   0  0  0  0  0  0  0  0  0  0  0  0
    4.9601    0.5366    1.4401 H   0  0  0  0  0  0  0  0  0  0  0  0
    4.7756   -1.1965    1.1054 H   0  0  0  0  0  0  0  0  0  0  0  0
    6.1036   -0.2862    0.3652 H   0  0  0  0  0  0  0  0  0  0  0  0
    4.5010    1.0452   -0.9669 H   0  0  0  0  0  0  0  0  0  0  0  0
    4.3168   -0.6784   -1.2994 H   0  0  0  0  0  0  0  0  0  0  0  0
    2.5567    0.9373    0.6315 H   0  0  0  0  0  0  0  0  0  0  0  0
    2.3802   -0.7730    0.3052 H   0  0  0  0  0  0  0  0  0  0  0  0
    2.1114    1.4712   -1.7681 H   0  0  0  0  0  0  0  0  0  0  0  0
    1.9303   -0.2399   -2.1449 H   0  0  0  0  0  0  0  0  0  0  0  0
   -1.4546    1.8639   -0.1509 H   0  0  0  0  0  0  0  0  0  0  0  0
   -3.7696    2.1779    0.5885 H   0  0  0  0  0  0  0  0  0  0  0  0
   -6.2805   -0.4352    0.5723 H   0  0  0  0  0  0  0  0  0  0  0  0
   -5.9927    1.2173    0.7440 H   0  0  0  0  0  0  0  0  0  0  0  0
   -4.5080   -2.0335    0.1393 H   0  0  0  0  0  0  0  0  0  0  0  0
   -2.1884   -2.3667   -0.6061 H   0  0  0  0  0  0  0  0  0  0  0  0
  1  2  1  0
  2  3  1  0
  3  4  1  0
  4  5  1  0
  5  6  1  0
  6  7  2  0
  6  8  1  0
  8  9  2  0
  9 10  1  0
 10 11  2  0
 11 12  1  0
 11 13  1  0
 13 14  2  0
 14  8  1  0
  1 15  1  0
  1 16  1  0
  1 17  1  0
  2 18  1  0
  2 19  1  0
  3 20  1  0
  3 21  1  0
  4 22  1  0
  4 23  1  0
  9 24  1  0
 10 25  1  0
 12 26  1  0
 12 27  1  0
 13 28  1  0
 14 29  1  0
M  END
>  <Energy>  (3) 
16.86544634812597

>  <Real charge>  (3) 
0

>  <Mult>  (3) 
1

$$$$
mol_164 123
     RDKit          3D

 29 29  0  0  0  0  0  0  0  0999 V2000
    4.0345    1.6436    0.6758 C   0  0  0  0  0  0  0  0  0  0  0  0
    3.0445    0.5189    0.9354 C   0  0  0  0  0  0  0  0  0  0  0  0
    3.0501   -0.5042   -0.2025 C   0  0  0  0  0  0  0  0  0  0  0  0
    2.0917   -1.6645    0.0593 C   0  0  0  0  0  0  0  0  0  0  0  0
    0.7434   -1.1975    0.2163 O   0  0  0  0  0  0  0  0  0  0  0  0
    0.0403   -1.0266   -0.9309 C   0  0  0  0  0  0  0  0  0  0  0  0
    0.4479   -1.2422   -2.0612 O   0  0  0  0  0  0  0  0  0  0  0  0
   -1.3299   -0.5274   -0.6336 C   0  0  0  0  0  0  0  0  0  0  0  0
   -2.2010   -0.3036   -1.7061 C   0  0  0  0  0  0  0  0  0  0  0  0
   -3.4973    0.1691   -1.4759 C   0  0  0  0  0  0  0  0  0  0  0  0
   -3.9580    0.3848   -0.1752 C   0  0  0  0  0  0  0  0  0  0  0  0
   -5.2095    0.9700    0.0409 N   0  0  0  0  0  0  0  0  0  0  0  0
   -3.0668    0.2171    0.8876 C   0  0  0  0  0  0  0  0  0  0  0  0
   -1.7676   -0.2550    0.6676 C   0  0  0  0  0  0  0  0  0  0  0  0
    3.7875    2.1782   -0.2471 H   0  0  0  0  0  0  0  0  0  0  0  0
    4.0157    2.3630    1.5005 H   0  0  0  0  0  0  0  0  0  0  0  0
    5.0543    1.2560    0.5864 H   0  0  0  0  0  0  0  0  0  0  0  0
    3.3010    0.0254    1.8800 H   0  0  0  0  0  0  0  0  0  0  0  0
    2.0429    0.9477    1.0544 H   0  0  0  0  0  0  0  0  0  0  0  0
    2.7705    0.0022   -1.1338 H   0  0  0  0  0  0  0  0  0  0  0  0
    4.0623   -0.9028   -0.3372 H   0  0  0  0  0  0  0  0  0  0  0  0
    2.3644   -2.1734    0.9903 H   0  0  0  0  0  0  0  0  0  0  0  0
    2.1551   -2.4134   -0.7392 H   0  0  0  0  0  0  0  0  0  0  0  0
   -1.8718   -0.4821   -2.7280 H   0  0  0  0  0  0  0  0  0  0  0  0
   -4.1445    0.3669   -2.3265 H   0  0  0  0  0  0  0  0  0  0  0  0
   -5.8874    0.7781   -0.6903 H   0  0  0  0  0  0  0  0  0  0  0  0
   -5.5882    0.8078    0.9687 H   0  0  0  0  0  0  0  0  0  0  0  0
   -3.3764    0.4540    1.9025 H   0  0  0  0  0  0  0  0  0  0  0  0
   -1.1078   -0.3899    1.5207 H   0  0  0  0  0  0  0  0  0  0  0  0
  1  2  1  0
  2  3  1  0
  3  4  1  0
  4  5  1  0
  5  6  1  0
  6  7  2  0
  6  8  1  0
  8  9  2  0
  9 10  1  0
 10 11  2  0
 11 12  1  0
 11 13  1  0
 13 14  2  0
 14  8  1  0
  1 15  1  0
  1 16  1  0
  1 17  1  0
  2 18  1  0
  2 19  1  0
  3 20  1  0
  3 21  1  0
  4 22  1  0
  4 23  1  0
  9 24  1  0
 10 25  1  0
 12 26  1  0
 12 27  1  0
 13 28  1  0
 14 29  1  0
M  END
>  <Energy>  (4) 
16.95639299127242

>  <Real charge>  (4) 
0

>  <Mult>  (4) 
1

$$$$
mol_164 38
     RDKit          3D

 29 29  0  0  0  0  0  0  0  0999 V2000
   -4.1441    1.4510    0.3653 C   0  0  0  0  0  0  0  0  0  0  0  0
   -3.1005    0.4359    0.8044 C   0  0  0  0  0  0  0  0  0  0  0  0
   -3.0008   -0.7268   -0.1854 C   0  0  0  0  0  0  0  0  0  0  0  0
   -1.9867   -1.7789    0.2596 C   0  0  0  0  0  0  0  0  0  0  0  0
   -0.6755   -1.2103    0.3942 O   0  0  0  0  0  0  0  0  0  0  0  0
    0.0616   -1.1505   -0.7427 C   0  0  0  0  0  0  0  0  0  0  0  0
   -0.2895   -1.5358   -1.8466 O   0  0  0  0  0  0  0  0  0  0  0  0
    1.3879   -0.5315   -0.4729 C   0  0  0  0  0  0  0  0  0  0  0  0
    1.7669   -0.0841    0.7980 C   0  0  0  0  0  0  0  0  0  0  0  0
    3.0284    0.4903    0.9935 C   0  0  0  0  0  0  0  0  0  0  0  0
    3.9099    0.6650   -0.0763 C   0  0  0  0  0  0  0  0  0  0  0  0
    5.2099    1.1272    0.1508 N   0  0  0  0  0  0  0  0  0  0  0  0
    3.5501    0.1638   -1.3292 C   0  0  0  0  0  0  0  0  0  0  0  0
    2.2915   -0.4110   -1.5349 C   0  0  0  0  0  0  0  0  0  0  0  0
   -5.1350    0.9908    0.2970 H   0  0  0  0  0  0  0  0  0  0  0  0
   -4.2003    2.2727    1.0861 H   0  0  0  0  0  0  0  0  0  0  0  0
   -3.8929    1.8736   -0.6128 H   0  0  0  0  0  0  0  0  0  0  0  0
   -2.1314    0.9396    0.8960 H   0  0  0  0  0  0  0  0  0  0  0  0
   -3.3645    0.0562    1.7982 H   0  0  0  0  0  0  0  0  0  0  0  0
   -2.7151   -0.3312   -1.1671 H   0  0  0  0  0  0  0  0  0  0  0  0
   -3.9816   -1.2035   -0.2969 H   0  0  0  0  0  0  0  0  0  0  0  0
   -1.9745   -2.6294   -0.4325 H   0  0  0  0  0  0  0  0  0  0  0  0
   -2.2653   -2.1765    1.2417 H   0  0  0  0  0  0  0  0  0  0  0  0
    1.1000   -0.1860    1.6502 H   0  0  0  0  0  0  0  0  0  0  0  0
    3.3162    0.8011    1.9947 H   0  0  0  0  0  0  0  0  0  0  0  0
    5.2971    1.7410    0.9547 H   0  0  0  0  0  0  0  0  0  0  0  0
    5.6636    1.5071   -0.6743 H   0  0  0  0  0  0  0  0  0  0  0  0
    4.2475    0.2162   -2.1614 H   0  0  0  0  0  0  0  0  0  0  0  0
    2.0271   -0.7760   -2.5256 H   0  0  0  0  0  0  0  0  0  0  0  0
  1  2  1  0
  2  3  1  0
  3  4  1  0
  4  5  1  0
  5  6  1  0
  6  7  2  0
  6  8  1  0
  8  9  2  0
  9 10  1  0
 10 11  2  0
 11 12  1  0
 11 13  1  0
 13 14  2  0
 14  8  1  0
  1 15  1  0
  1 16  1  0
  1 17  1  0
  2 18  1  0
  2 19  1  0
  3 20  1  0
  3 21  1  0
  4 22  1  0
  4 23  1  0
  9 24  1  0
 10 25  1  0
 12 26  1  0
 12 27  1  0
 13 28  1  0
 14 29  1  0
M  END
>  <Energy>  (5) 
16.95990456498517

>  <Real charge>  (5) 
0

>  <Mult>  (5) 
1

$$$$
mol_164 202
     RDKit          3D

 29 29  0  0  0  0  0  0  0  0999 V2000
    4.9212    0.7678    0.1809 C   0  0  0  0  0  0  0  0  0  0  0  0
    4.3234   -0.6183   -0.0031 C   0  0  0  0  0  0  0  0  0  0  0  0
    2.8457   -0.6985    0.3759 C   0  0  0  0  0  0  0  0  0  0  0  0
    1.9376    0.1359   -0.5218 C   0  0  0  0  0  0  0  0  0  0  0  0
    0.5810   -0.1035   -0.1194 O   0  0  0  0  0  0  0  0  0  0  0  0
   -0.3432    0.5714   -0.8477 C   0  0  0  0  0  0  0  0  0  0  0  0
   -0.1060    1.3321   -1.7729 O   0  0  0  0  0  0  0  0  0  0  0  0
   -1.7172    0.2652   -0.3652 C   0  0  0  0  0  0  0  0  0  0  0  0
   -2.7982    0.8747   -1.0123 C   0  0  0  0  0  0  0  0  0  0  0  0
   -4.1080    0.6154   -0.5952 C   0  0  0  0  0  0  0  0  0  0  0  0
   -4.3575   -0.2188    0.4969 C   0  0  0  0  0  0  0  0  0  0  0  0
   -5.6696   -0.5678    0.8314 N   0  0  0  0  0  0  0  0  0  0  0  0
   -3.2800   -0.8706    1.1019 C   0  0  0  0  0  0  0  0  0  0  0  0
   -1.9658   -0.6182    0.6916 C   0  0  0  0  0  0  0  0  0  0  0  0
    4.7729    1.1272    1.2041 H   0  0  0  0  0  0  0  0  0  0  0  0
    4.4763    1.4912   -0.5086 H   0  0  0  0  0  0  0  0  0  0  0  0
    5.9978    0.7416   -0.0162 H   0  0  0  0  0  0  0  0  0  0  0  0
    4.4598   -0.9392   -1.0423 H   0  0  0  0  0  0  0  0  0  0  0  0
    4.8818   -1.3248    0.6225 H   0  0  0  0  0  0  0  0  0  0  0  0
    2.5226   -1.7464    0.3302 H   0  0  0  0  0  0  0  0  0  0  0  0
    2.7057   -0.3946    1.4209 H   0  0  0  0  0  0  0  0  0  0  0  0
    2.1601    1.2026   -0.4106 H   0  0  0  0  0  0  0  0  0  0  0  0
    2.0656   -0.1621   -1.5689 H   0  0  0  0  0  0  0  0  0  0  0  0
   -2.6288    1.5440   -1.8537 H   0  0  0  0  0  0  0  0  0  0  0  0
   -4.9330    1.0742   -1.1342 H   0  0  0  0  0  0  0  0  0  0  0  0
   -6.3594    0.1368    0.5893 H   0  0  0  0  0  0  0  0  0  0  0  0
   -5.7795   -0.9026    1.7835 H   0  0  0  0  0  0  0  0  0  0  0  0
   -3.4538   -1.5851    1.9027 H   0  0  0  0  0  0  0  0  0  0  0  0
   -1.1513   -1.1297    1.1980 H   0  0  0  0  0  0  0  0  0  0  0  0
  1  2  1  0
  2  3  1  0
  3  4  1  0
  4  5  1  0
  5  6  1  0
  6  7  2  0
  6  8  1  0
  8  9  2  0
  9 10  1  0
 10 11  2  0
 11 12  1  0
 11 13  1  0
 13 14  2  0
 14  8  1  0
  1 15  1  0
  1 16  1  0
  1 17  1  0
  2 18  1  0
  2 19  1  0
  3 20  1  0
  3 21  1  0
  4 22  1  0
  4 23  1  0
  9 24  1  0
 10 25  1  0
 12 26  1  0
 12 27  1  0
 13 28  1  0
 14 29  1  0
M  END
>  <Energy>  (6) 
17.225668291557298

>  <Real charge>  (6) 
0

>  <Mult>  (6) 
1

$$$$
mol_164 181
     RDKit          3D

 29 29  0  0  0  0  0  0  0  0999 V2000
   -3.7694    1.3572   -0.2140 C   0  0  0  0  0  0  0  0  0  0  0  0
   -3.2891    0.4983    0.9452 C   0  0  0  0  0  0  0  0  0  0  0  0
   -3.1717   -0.9884    0.5953 C   0  0  0  0  0  0  0  0  0  0  0  0
   -2.1547   -1.3020   -0.4996 C   0  0  0  0  0  0  0  0  0  0  0  0
   -0.8687   -0.8140   -0.0990 O   0  0  0  0  0  0  0  0  0  0  0  0
    0.1130   -1.0096   -1.0138 C   0  0  0  0  0  0  0  0  0  0  0  0
   -0.0184   -1.5593   -2.0959 O   0  0  0  0  0  0  0  0  0  0  0  0
    1.4046   -0.4593   -0.5204 C   0  0  0  0  0  0  0  0  0  0  0  0
    1.5252    0.1893    0.7141 C   0  0  0  0  0  0  0  0  0  0  0  0
    2.7653    0.6908    1.1260 C   0  0  0  0  0  0  0  0  0  0  0  0
    3.9059    0.5181    0.3378 C   0  0  0  0  0  0  0  0  0  0  0  0
    5.1114    1.1267    0.7007 N   0  0  0  0  0  0  0  0  0  0  0  0
    3.7681   -0.0763   -0.9186 C   0  0  0  0  0  0  0  0  0  0  0  0
    2.5332   -0.5814   -1.3391 C   0  0  0  0  0  0  0  0  0  0  0  0
   -4.7147    0.9807   -0.6172 H   0  0  0  0  0  0  0  0  0  0  0  0
   -3.9305    2.3863    0.1228 H   0  0  0  0  0  0  0  0  0  0  0  0
   -3.0336    1.3858   -1.0230 H   0  0  0  0  0  0  0  0  0  0  0  0
   -3.9988    0.6028    1.7747 H   0  0  0  0  0  0  0  0  0  0  0  0
   -2.3275    0.8802    1.3069 H   0  0  0  0  0  0  0  0  0  0  0  0
   -4.1529   -1.3772    0.2991 H   0  0  0  0  0  0  0  0  0  0  0  0
   -2.8761   -1.5198    1.5086 H   0  0  0  0  0  0  0  0  0  0  0  0
   -2.1005   -2.3884   -0.6379 H   0  0  0  0  0  0  0  0  0  0  0  0
   -2.4529   -0.8398   -1.4472 H   0  0  0  0  0  0  0  0  0  0  0  0
    0.6632    0.3265    1.3618 H   0  0  0  0  0  0  0  0  0  0  0  0
    2.8311    1.2203    2.0732 H   0  0  0  0  0  0  0  0  0  0  0  0
    5.9304    0.7143    0.2645 H   0  0  0  0  0  0  0  0  0  0  0  0
    5.2291    1.2490    1.7016 H   0  0  0  0  0  0  0  0  0  0  0  0
    4.6232   -0.1532   -1.5854 H   0  0  0  0  0  0  0  0  0  0  0  0
    2.4556   -1.0576   -2.3146 H   0  0  0  0  0  0  0  0  0  0  0  0
  1  2  1  0
  2  3  1  0
  3  4  1  0
  4  5  1  0
  5  6  1  0
  6  7  2  0
  6  8  1  0
  8  9  2  0
  9 10  1  0
 10 11  2  0
 11 12  1  0
 11 13  1  0
 13 14  2  0
 14  8  1  0
  1 15  1  0
  1 16  1  0
  1 17  1  0
  2 18  1  0
  2 19  1  0
  3 20  1  0
  3 21  1  0
  4 22  1  0
  4 23  1  0
  9 24  1  0
 10 25  1  0
 12 26  1  0
 12 27  1  0
 13 28  1  0
 14 29  1  0
M  END
>  <Energy>  (7) 
17.241600491003325

>  <Real charge>  (7) 
0

>  <Mult>  (7) 
1

$$$$
mol_164 399
     RDKit          3D

 29 29  0  0  0  0  0  0  0  0999 V2000
   -3.8127    1.1162    0.5424 C   0  0  0  0  0  0  0  0  0  0  0  0
   -3.3127    0.5364   -0.7714 C   0  0  0  0  0  0  0  0  0  0  0  0
   -3.1342   -0.9846   -0.7384 C   0  0  0  0  0  0  0  0  0  0  0  0
   -2.0933   -1.4775    0.2642 C   0  0  0  0  0  0  0  0  0  0  0  0
   -0.8318   -0.8657   -0.0303 O   0  0  0  0  0  0  0  0  0  0  0  0
    0.1682   -1.2105    0.8182 C   0  0  0  0  0  0  0  0  0  0  0  0
    0.0698   -1.9756    1.7646 O   0  0  0  0  0  0  0  0  0  0  0  0
    1.4322   -0.5195    0.4452 C   0  0  0  0  0  0  0  0  0  0  0  0
    2.5782   -0.7774    1.2060 C   0  0  0  0  0  0  0  0  0  0  0  0
    3.7893   -0.1519    0.8920 C   0  0  0  0  0  0  0  0  0  0  0  0
    3.8665    0.7701   -0.1544 C   0  0  0  0  0  0  0  0  0  0  0  0
    5.1030    1.2987   -0.5377 N   0  0  0  0  0  0  0  0  0  0  0  0
    2.7352    0.9802   -0.9470 C   0  0  0  0  0  0  0  0  0  0  0  0
    1.5189    0.3587   -0.6413 C   0  0  0  0  0  0  0  0  0  0  0  0
   -3.0695    1.0057    1.3375 H   0  0  0  0  0  0  0  0  0  0  0  0
   -4.7382    0.6267    0.8614 H   0  0  0  0  0  0  0  0  0  0  0  0
   -4.0172    2.1855    0.4272 H   0  0  0  0  0  0  0  0  0  0  0  0
   -4.0353    0.7822   -1.5589 H   0  0  0  0  0  0  0  0  0  0  0  0
   -2.3708    1.0233   -1.0488 H   0  0  0  0  0  0  0  0  0  0  0  0
   -2.8288   -1.3027   -1.7431 H   0  0  0  0  0  0  0  0  0  0  0  0
   -4.0962   -1.4654   -0.5262 H   0  0  0  0  0  0  0  0  0  0  0  0
   -1.9958   -2.5659    0.1738 H   0  0  0  0  0  0  0  0  0  0  0  0
   -2.3981   -1.2342    1.2881 H   0  0  0  0  0  0  0  0  0  0  0  0
    2.5391   -1.4770    2.0388 H   0  0  0  0  0  0  0  0  0  0  0  0
    4.6738   -0.3932    1.4762 H   0  0  0  0  0  0  0  0  0  0  0  0
    5.7776    1.3627    0.2184 H   0  0  0  0  0  0  0  0  0  0  0  0
    5.0381    2.1610   -1.0695 H   0  0  0  0  0  0  0  0  0  0  0  0
    2.7899    1.6330   -1.8145 H   0  0  0  0  0  0  0  0  0  0  0  0
    0.6549    0.5609   -1.2690 H   0  0  0  0  0  0  0  0  0  0  0  0
  1  2  1  0
  2  3  1  0
  3  4  1  0
  4  5  1  0
  5  6  1  0
  6  7  2  0
  6  8  1  0
  8  9  2  0
  9 10  1  0
 10 11  2  0
 11 12  1  0
 11 13  1  0
 13 14  2  0
 14  8  1  0
  1 15  1  0
  1 16  1  0
  1 17  1  0
  2 18  1  0
  2 19  1  0
  3 20  1  0
  3 21  1  0
  4 22  1  0
  4 23  1  0
  9 24  1  0
 10 25  1  0
 12 26  1  0
 12 27  1  0
 13 28  1  0
 14 29  1  0
M  END
>  <Energy>  (8) 
17.244671591503476

>  <Real charge>  (8) 
0

>  <Mult>  (8) 
1

$$$$
