mol_1088 129
     RDKit          3D

 26 25  0  0  0  0  0  0  0  0999 V2000
   -1.3518    2.1400    0.6501 C   0  0  0  0  0  0  0  0  0  0  0  0
   -1.7256    0.7252    1.0685 C   0  0  0  0  0  0  0  0  0  0  0  0
   -0.7891   -0.2721    0.5192 N   0  0  0  0  0  0  0  0  0  0  0  0
   -1.1847   -0.8157   -0.7939 C   0  0  0  0  0  0  0  0  0  0  0  0
   -2.0714   -2.0448   -0.6544 C   0  0  0  0  0  0  0  0  0  0  0  0
    0.3607   -0.6762    1.2254 C   0  0  0  0  0  0  0  0  0  0  0  0
    0.7967   -0.1385    2.7652 S   0  0  0  0  0  0  0  0  0  0  0  0
    1.3853   -1.8852    0.4372 S   0  0  0  0  0  0  0  0  0  0  0  0
    2.8395   -0.8731    0.0289 C   0  0  0  0  0  0  0  0  0  0  0  0
    2.5371    0.1669   -1.0123 C   0  0  0  0  0  0  0  0  0  0  0  0
    2.4521   -0.3925   -2.6516 Cl  0  0  0  0  0  0  0  0  0  0  0  0
    2.4038    1.4768   -0.7638 C   0  0  0  0  0  0  0  0  0  0  0  0
   -0.3543    2.4131    1.0076 H   0  0  0  0  0  0  0  0  0  0  0  0
   -2.0691    2.8580    1.0594 H   0  0  0  0  0  0  0  0  0  0  0  0
   -1.3521    2.2420   -0.4399 H   0  0  0  0  0  0  0  0  0  0  0  0
   -2.7370    0.4898    0.7173 H   0  0  0  0  0  0  0  0  0  0  0  0
   -1.7648    0.6606    2.1593 H   0  0  0  0  0  0  0  0  0  0  0  0
   -0.3094   -1.0605   -1.3978 H   0  0  0  0  0  0  0  0  0  0  0  0
   -1.7186   -0.0348   -1.3481 H   0  0  0  0  0  0  0  0  0  0  0  0
   -2.9902   -1.8085   -0.1081 H   0  0  0  0  0  0  0  0  0  0  0  0
   -1.5624   -2.8478   -0.1127 H   0  0  0  0  0  0  0  0  0  0  0  0
   -2.3516   -2.4234   -1.6422 H   0  0  0  0  0  0  0  0  0  0  0  0
    3.2422   -0.4146    0.9382 H   0  0  0  0  0  0  0  0  0  0  0  0
    3.6247   -1.5448   -0.3367 H   0  0  0  0  0  0  0  0  0  0  0  0
    2.4782    1.8706    0.2450 H   0  0  0  0  0  0  0  0  0  0  0  0
    2.2118    2.1897   -1.5597 H   0  0  0  0  0  0  0  0  0  0  0  0
  1  2  1  0
  2  3  1  0
  3  4  1  0
  4  5  1  0
  3  6  1  0
  6  7  2  0
  6  8  1  0
  8  9  1  0
  9 10  1  0
 10 11  1  0
 10 12  2  3
  1 13  1  0
  1 14  1  0
  1 15  1  0
  2 16  1  0
  2 17  1  0
  4 18  1  0
  4 19  1  0
  5 20  1  0
  5 21  1  0
  5 22  1  0
  9 23  1  0
  9 24  1  0
 12 25  1  0
 12 26  1  0
M  END
>  <Energy>  (1) 
-14.989679234953746

>  <Real charge>  (1) 
0

>  <Mult>  (1) 
1

$$$$
mol_1088 175
     RDKit          3D

 26 25  0  0  0  0  0  0  0  0999 V2000
   -2.6056    0.8327    1.4854 C   0  0  0  0  0  0  0  0  0  0  0  0
   -2.4252   -0.4694    0.7185 C   0  0  0  0  0  0  0  0  0  0  0  0
   -1.1350   -0.5114    0.0063 N   0  0  0  0  0  0  0  0  0  0  0  0
   -1.1779    0.0339   -1.3640 C   0  0  0  0  0  0  0  0  0  0  0  0
   -1.5213   -1.0340   -2.3925 C   0  0  0  0  0  0  0  0  0  0  0  0
    0.0163   -1.0649    0.5974 C   0  0  0  0  0  0  0  0  0  0  0  0
    0.1102   -1.7091    2.1522 S   0  0  0  0  0  0  0  0  0  0  0  0
    1.4768   -1.0953   -0.3976 S   0  0  0  0  0  0  0  0  0  0  0  0
    2.2671    0.4079    0.2525 C   0  0  0  0  0  0  0  0  0  0  0  0
    3.3993    0.8264   -0.6403 C   0  0  0  0  0  0  0  0  0  0  0  0
    2.9582    1.7275   -2.0554 Cl  0  0  0  0  0  0  0  0  0  0  0  0
    4.6952    0.6043   -0.3829 C   0  0  0  0  0  0  0  0  0  0  0  0
   -1.8179    0.9702    2.2325 H   0  0  0  0  0  0  0  0  0  0  0  0
   -2.5760    1.6948    0.8114 H   0  0  0  0  0  0  0  0  0  0  0  0
   -3.5706    0.8377    2.0015 H   0  0  0  0  0  0  0  0  0  0  0  0
   -2.5163   -1.3170    1.4033 H   0  0  0  0  0  0  0  0  0  0  0  0
   -3.2338   -0.5851   -0.0126 H   0  0  0  0  0  0  0  0  0  0  0  0
   -0.2290    0.5105   -1.6218 H   0  0  0  0  0  0  0  0  0  0  0  0
   -1.9285    0.8323   -1.3976 H   0  0  0  0  0  0  0  0  0  0  0  0
   -2.5015   -1.4767   -2.1880 H   0  0  0  0  0  0  0  0  0  0  0  0
   -1.5486   -0.5977   -3.3958 H   0  0  0  0  0  0  0  0  0  0  0  0
   -0.7869   -1.8448   -2.3930 H   0  0  0  0  0  0  0  0  0  0  0  0
    2.6351    0.2023    1.2638 H   0  0  0  0  0  0  0  0  0  0  0  0
    1.5325    1.2169    0.3359 H   0  0  0  0  0  0  0  0  0  0  0  0
    5.4751    0.9485   -1.0550 H   0  0  0  0  0  0  0  0  0  0  0  0
    5.0082    0.0596    0.5021 H   0  0  0  0  0  0  0  0  0  0  0  0
  1  2  1  0
  2  3  1  0
  3  4  1  0
  4  5  1  0
  3  6  1  0
  6  7  2  0
  6  8  1  0
  8  9  1  0
  9 10  1  0
 10 11  1  0
 10 12  2  3
  1 13  1  0
  1 14  1  0
  1 15  1  0
  2 16  1  0
  2 17  1  0
  4 18  1  0
  4 19  1  0
  5 20  1  0
  5 21  1  0
  5 22  1  0
  9 23  1  0
  9 24  1  0
 12 25  1  0
 12 26  1  0
M  END
>  <Energy>  (2) 
-14.927516451692723

>  <Real charge>  (2) 
0

>  <Mult>  (2) 
1

$$$$
mol_1088 63
     RDKit          3D

 26 25  0  0  0  0  0  0  0  0999 V2000
   -3.2273    1.7260   -0.7866 C   0  0  0  0  0  0  0  0  0  0  0  0
   -2.3725    0.4845   -1.0006 C   0  0  0  0  0  0  0  0  0  0  0  0
   -1.1483    0.5010   -0.1787 N   0  0  0  0  0  0  0  0  0  0  0  0
   -1.3190   -0.0477    1.1807 C   0  0  0  0  0  0  0  0  0  0  0  0
   -1.0905   -1.5513    1.2241 C   0  0  0  0  0  0  0  0  0  0  0  0
    0.0578    1.0443   -0.6621 C   0  0  0  0  0  0  0  0  0  0  0  0
    0.2554    1.8161   -2.1490 S   0  0  0  0  0  0  0  0  0  0  0  0
    1.4608    0.9189    0.4073 S   0  0  0  0  0  0  0  0  0  0  0  0
    2.3786   -0.3803   -0.4735 C   0  0  0  0  0  0  0  0  0  0  0  0
    3.5061   -0.8875    0.3796 C   0  0  0  0  0  0  0  0  0  0  0  0
    3.0838   -2.0638    1.5821 Cl  0  0  0  0  0  0  0  0  0  0  0  0
    4.7910   -0.5392    0.2286 C   0  0  0  0  0  0  0  0  0  0  0  0
   -2.6809    2.6397   -1.0388 H   0  0  0  0  0  0  0  0  0  0  0  0
   -3.5482    1.8109    0.2564 H   0  0  0  0  0  0  0  0  0  0  0  0
   -4.1231    1.6804   -1.4137 H   0  0  0  0  0  0  0  0  0  0  0  0
   -2.9509   -0.4113   -0.7466 H   0  0  0  0  0  0  0  0  0  0  0  0
   -2.1196    0.3881   -2.0604 H   0  0  0  0  0  0  0  0  0  0  0  0
   -0.6555    0.4530    1.8903 H   0  0  0  0  0  0  0  0  0  0  0  0
   -2.3368    0.1767    1.5203 H   0  0  0  0  0  0  0  0  0  0  0  0
   -0.0843   -1.8161    0.8896 H   0  0  0  0  0  0  0  0  0  0  0  0
   -1.2200   -1.9242    2.2447 H   0  0  0  0  0  0  0  0  0  0  0  0
   -1.8009   -2.0774    0.5786 H   0  0  0  0  0  0  0  0  0  0  0  0
    2.7725    0.0346   -1.4078 H   0  0  0  0  0  0  0  0  0  0  0  0
    1.7071   -1.2025   -0.7445 H   0  0  0  0  0  0  0  0  0  0  0  0
    5.0946    0.1804   -0.5249 H   0  0  0  0  0  0  0  0  0  0  0  0
    5.5700   -0.9533    0.8612 H   0  0  0  0  0  0  0  0  0  0  0  0
  1  2  1  0
  2  3  1  0
  3  4  1  0
  4  5  1  0
  3  6  1  0
  6  7  2  0
  6  8  1  0
  8  9  1  0
  9 10  1  0
 10 11  1  0
 10 12  2  3
  1 13  1  0
  1 14  1  0
  1 15  1  0
  2 16  1  0
  2 17  1  0
  4 18  1  0
  4 19  1  0
  5 20  1  0
  5 21  1  0
  5 22  1  0
  9 23  1  0
  9 24  1  0
 12 25  1  0
 12 26  1  0
M  END
>  <Energy>  (3) 
-14.807816358760968

>  <Real charge>  (3) 
0

>  <Mult>  (3) 
1

$$$$
mol_1088 185
     RDKit          3D

 26 25  0  0  0  0  0  0  0  0999 V2000
   -1.5114   -2.0995   -1.1108 C   0  0  0  0  0  0  0  0  0  0  0  0
   -0.8096   -0.7549   -0.9844 C   0  0  0  0  0  0  0  0  0  0  0  0
   -1.0498   -0.1299    0.3294 N   0  0  0  0  0  0  0  0  0  0  0  0
   -2.2514    0.7229    0.3848 C   0  0  0  0  0  0  0  0  0  0  0  0
   -1.9429    2.1674    0.0186 C   0  0  0  0  0  0  0  0  0  0  0  0
   -0.2292   -0.3249    1.4575 C   0  0  0  0  0  0  0  0  0  0  0  0
   -0.4967    0.3413    2.9852 S   0  0  0  0  0  0  0  0  0  0  0  0
    1.1422   -1.4248    1.2550 S   0  0  0  0  0  0  0  0  0  0  0  0
    2.5286   -0.2512    1.3080 C   0  0  0  0  0  0  0  0  0  0  0  0
    2.7473    0.4078   -0.0238 C   0  0  0  0  0  0  0  0  0  0  0  0
    1.9348    1.9170   -0.2751 Cl  0  0  0  0  0  0  0  0  0  0  0  0
    3.5718   -0.0540   -0.9741 C   0  0  0  0  0  0  0  0  0  0  0  0
   -1.1671   -2.8059   -0.3495 H   0  0  0  0  0  0  0  0  0  0  0  0
   -1.3169   -2.5366   -2.0950 H   0  0  0  0  0  0  0  0  0  0  0  0
   -2.5946   -1.9916   -0.9954 H   0  0  0  0  0  0  0  0  0  0  0  0
    0.2594   -0.8777   -1.1711 H   0  0  0  0  0  0  0  0  0  0  0  0
   -1.1706   -0.0748   -1.7649 H   0  0  0  0  0  0  0  0  0  0  0  0
   -2.7076    0.6830    1.3778 H   0  0  0  0  0  0  0  0  0  0  0  0
   -3.0008    0.3184   -0.3056 H   0  0  0  0  0  0  0  0  0  0  0  0
   -1.2163    2.6091    0.7071 H   0  0  0  0  0  0  0  0  0  0  0  0
   -2.8557    2.7700    0.0551 H   0  0  0  0  0  0  0  0  0  0  0  0
   -1.5287    2.2387   -0.9922 H   0  0  0  0  0  0  0  0  0  0  0  0
    2.4108    0.4873    2.1071 H   0  0  0  0  0  0  0  0  0  0  0  0
    3.4192   -0.8328    1.5744 H   0  0  0  0  0  0  0  0  0  0  0  0
    4.1184   -0.9823   -0.8418 H   0  0  0  0  0  0  0  0  0  0  0  0
    3.7168    0.4782   -1.9091 H   0  0  0  0  0  0  0  0  0  0  0  0
  1  2  1  0
  2  3  1  0
  3  4  1  0
  4  5  1  0
  3  6  1  0
  6  7  2  0
  6  8  1  0
  8  9  1  0
  9 10  1  0
 10 11  1  0
 10 12  2  3
  1 13  1  0
  1 14  1  0
  1 15  1  0
  2 16  1  0
  2 17  1  0
  4 18  1  0
  4 19  1  0
  5 20  1  0
  5 21  1  0
  5 22  1  0
  9 23  1  0
  9 24  1  0
 12 25  1  0
 12 26  1  0
M  END
>  <Energy>  (4) 
-14.396036899125098

>  <Real charge>  (4) 
0

>  <Mult>  (4) 
1

$$$$
mol_1088 124
     RDKit          3D

 26 25  0  0  0  0  0  0  0  0999 V2000
   -3.4217   -1.3970   -0.4600 C   0  0  0  0  0  0  0  0  0  0  0  0
   -2.4290   -0.6932    0.4550 C   0  0  0  0  0  0  0  0  0  0  0  0
   -1.1277   -0.4660   -0.2005 N   0  0  0  0  0  0  0  0  0  0  0  0
   -1.0512    0.7779   -0.9903 C   0  0  0  0  0  0  0  0  0  0  0  0
   -0.5836    1.9602   -0.1542 C   0  0  0  0  0  0  0  0  0  0  0  0
   -0.0808   -1.4040   -0.1078 C   0  0  0  0  0  0  0  0  0  0  0  0
   -0.1857   -2.9136    0.6366 S   0  0  0  0  0  0  0  0  0  0  0  0
    1.4518   -0.9417   -0.8599 S   0  0  0  0  0  0  0  0  0  0  0  0
    2.4269   -0.6266    0.6426 C   0  0  0  0  0  0  0  0  0  0  0  0
    3.6940    0.1022    0.2964 C   0  0  0  0  0  0  0  0  0  0  0  0
    4.9964   -0.8734   -0.3030 Cl  0  0  0  0  0  0  0  0  0  0  0  0
    3.8921    1.4149    0.4785 C   0  0  0  0  0  0  0  0  0  0  0  0
   -3.6208   -0.8048   -1.3588 H   0  0  0  0  0  0  0  0  0  0  0  0
   -3.0486   -2.3730   -0.7843 H   0  0  0  0  0  0  0  0  0  0  0  0
   -4.3717   -1.5511    0.0610 H   0  0  0  0  0  0  0  0  0  0  0  0
   -2.2976   -1.2728    1.3733 H   0  0  0  0  0  0  0  0  0  0  0  0
   -2.8351    0.2762    0.7666 H   0  0  0  0  0  0  0  0  0  0  0  0
   -0.3980    0.6485   -1.8572 H   0  0  0  0  0  0  0  0  0  0  0  0
   -2.0454    0.9919   -1.3997 H   0  0  0  0  0  0  0  0  0  0  0  0
   -0.5491    2.8662   -0.7671 H   0  0  0  0  0  0  0  0  0  0  0  0
    0.4139    1.7927    0.2606 H   0  0  0  0  0  0  0  0  0  0  0  0
   -1.2631    2.1437    0.6843 H   0  0  0  0  0  0  0  0  0  0  0  0
    2.6583   -1.5697    1.1491 H   0  0  0  0  0  0  0  0  0  0  0  0
    1.8263   -0.0269    1.3362 H   0  0  0  0  0  0  0  0  0  0  0  0
    4.8394    1.8841    0.2306 H   0  0  0  0  0  0  0  0  0  0  0  0
    3.1100    2.0551    0.8722 H   0  0  0  0  0  0  0  0  0  0  0  0
  1  2  1  0
  2  3  1  0
  3  4  1  0
  4  5  1  0
  3  6  1  0
  6  7  2  0
  6  8  1  0
  8  9  1  0
  9 10  1  0
 10 11  1  0
 10 12  2  3
  1 13  1  0
  1 14  1  0
  1 15  1  0
  2 16  1  0
  2 17  1  0
  4 18  1  0
  4 19  1  0
  5 20  1  0
  5 21  1  0
  5 22  1  0
  9 23  1  0
  9 24  1  0
 12 25  1  0
 12 26  1  0
M  END
>  <Energy>  (5) 
-13.99388850497145

>  <Real charge>  (5) 
0

>  <Mult>  (5) 
1

$$$$
