mol_990 351
     RDKit          3D

 26 25  0  0  0  0  0  0  0  0999 V2000
   -4.4546   -0.0567   -0.2054 C   0  0  0  0  0  0  0  0  0  0  0  0
   -3.1498   -0.4004    0.4953 C   0  0  0  0  0  0  0  0  0  0  0  0
   -1.9409    0.0991   -0.2954 C   0  0  0  0  0  0  0  0  0  0  0  0
   -0.6306   -0.2487    0.4129 C   0  0  0  0  0  0  0  0  0  0  0  0
    0.5793    0.2511   -0.3784 C   0  0  0  0  0  0  0  0  0  0  0  0
    1.8896   -0.0966    0.3299 C   0  0  0  0  0  0  0  0  0  0  0  0
    3.0996    0.4029   -0.4608 C   0  0  0  0  0  0  0  0  0  0  0  0
    4.3967    0.0538    0.2489 C   0  0  0  0  0  0  0  0  0  0  0  0
    5.9108    0.7052   -0.7871 Br  0  0  0  0  0  0  0  0  0  0  0  0
   -4.4995   -0.5159   -1.1981 H   0  0  0  0  0  0  0  0  0  0  0  0
   -4.5637    1.0262   -0.3222 H   0  0  0  0  0  0  0  0  0  0  0  0
   -5.3056   -0.4230    0.3771 H   0  0  0  0  0  0  0  0  0  0  0  0
   -3.0869   -1.4871    0.6252 H   0  0  0  0  0  0  0  0  0  0  0  0
   -3.1508    0.0466    1.4963 H   0  0  0  0  0  0  0  0  0  0  0  0
   -2.0109    1.1858   -0.4261 H   0  0  0  0  0  0  0  0  0  0  0  0
   -1.9471   -0.3477   -1.2971 H   0  0  0  0  0  0  0  0  0  0  0  0
   -0.5607   -1.3355    0.5433 H   0  0  0  0  0  0  0  0  0  0  0  0
   -0.6246    0.1983    1.4144 H   0  0  0  0  0  0  0  0  0  0  0  0
    0.5732   -0.1958   -1.3800 H   0  0  0  0  0  0  0  0  0  0  0  0
    0.5094    1.3379   -0.5088 H   0  0  0  0  0  0  0  0  0  0  0  0
    1.8956    0.3504    1.3315 H   0  0  0  0  0  0  0  0  0  0  0  0
    1.9594   -1.1835    0.4603 H   0  0  0  0  0  0  0  0  0  0  0  0
    3.0903   -0.0406   -1.4644 H   0  0  0  0  0  0  0  0  0  0  0  0
    3.0266    1.4894   -0.5954 H   0  0  0  0  0  0  0  0  0  0  0  0
    4.5299   -1.0267    0.3512 H   0  0  0  0  0  0  0  0  0  0  0  0
    4.4653    0.5256    1.2329 H   0  0  0  0  0  0  0  0  0  0  0  0
  1  2  1  0
  2  3  1  0
  3  4  1  0
  4  5  1  0
  5  6  1  0
  6  7  1  0
  7  8  1  0
  8  9  1  0
  1 10  1  0
  1 11  1  0
  1 12  1  0
  2 13  1  0
  2 14  1  0
  3 15  1  0
  3 16  1  0
  4 17  1  0
  4 18  1  0
  5 19  1  0
  5 20  1  0
  6 21  1  0
  6 22  1  0
  7 23  1  0
  7 24  1  0
  8 25  1  0
  8 26  1  0
M  END
>  <Energy>  (1) 
-3.182104448877155

>  <Real charge>  (1) 
0

>  <Mult>  (1) 
1

$$$$
mol_990 64
     RDKit          3D

 26 25  0  0  0  0  0  0  0  0999 V2000
    4.4373   -0.0510    0.2817 C   0  0  0  0  0  0  0  0  0  0  0  0
    3.1087    0.6881    0.2789 C   0  0  0  0  0  0  0  0  0  0  0  0
    1.9332   -0.2735    0.1069 C   0  0  0  0  0  0  0  0  0  0  0  0
    0.5987    0.4739    0.1046 C   0  0  0  0  0  0  0  0  0  0  0  0
   -0.5777   -0.4884   -0.0677 C   0  0  0  0  0  0  0  0  0  0  0  0
   -1.9130    0.2594   -0.0698 C   0  0  0  0  0  0  0  0  0  0  0  0
   -3.0895   -0.7077   -0.2409 C   0  0  0  0  0  0  0  0  0  0  0  0
   -4.4425   -0.0160   -0.1808 C   0  0  0  0  0  0  0  0  0  0  0  0
   -4.7958    0.9886   -1.8102 Br  0  0  0  0  0  0  0  0  0  0  0  0
    5.2639    0.6557    0.4058 H   0  0  0  0  0  0  0  0  0  0  0  0
    4.5889   -0.5891   -0.6595 H   0  0  0  0  0  0  0  0  0  0  0  0
    4.4823   -0.7740    1.1023 H   0  0  0  0  0  0  0  0  0  0  0  0
    3.0030    1.2412    1.2195 H   0  0  0  0  0  0  0  0  0  0  0  0
    3.1090    1.4251   -0.5326 H   0  0  0  0  0  0  0  0  0  0  0  0
    2.0460   -0.8271   -0.8333 H   0  0  0  0  0  0  0  0  0  0  0  0
    1.9400   -1.0110    0.9188 H   0  0  0  0  0  0  0  0  0  0  0  0
    0.5921    1.2113   -0.7073 H   0  0  0  0  0  0  0  0  0  0  0  0
    0.4860    1.0272    1.0449 H   0  0  0  0  0  0  0  0  0  0  0  0
   -0.5706   -1.2259    0.7442 H   0  0  0  0  0  0  0  0  0  0  0  0
   -0.4654   -1.0413   -1.0082 H   0  0  0  0  0  0  0  0  0  0  0  0
   -2.0254    0.8096    0.8724 H   0  0  0  0  0  0  0  0  0  0  0  0
   -1.9092    0.9997   -0.8776 H   0  0  0  0  0  0  0  0  0  0  0  0
   -3.0501   -1.4473    0.5686 H   0  0  0  0  0  0  0  0  0  0  0  0
   -2.9822   -1.2621   -1.1812 H   0  0  0  0  0  0  0  0  0  0  0  0
   -5.2501   -0.7498   -0.1073 H   0  0  0  0  0  0  0  0  0  0  0  0
   -4.5177    0.6845    0.6552 H   0  0  0  0  0  0  0  0  0  0  0  0
  1  2  1  0
  2  3  1  0
  3  4  1  0
  4  5  1  0
  5  6  1  0
  6  7  1  0
  7  8  1  0
  8  9  1  0
  1 10  1  0
  1 11  1  0
  1 12  1  0
  2 13  1  0
  2 14  1  0
  3 15  1  0
  3 16  1  0
  4 17  1  0
  4 18  1  0
  5 19  1  0
  5 20  1  0
  6 21  1  0
  6 22  1  0
  7 23  1  0
  7 24  1  0
  8 25  1  0
  8 26  1  0
M  END
>  <Energy>  (2) 
-2.781606073441382

>  <Real charge>  (2) 
0

>  <Mult>  (2) 
1

$$$$
mol_990 360
     RDKit          3D

 26 25  0  0  0  0  0  0  0  0999 V2000
    4.2807    0.1355    0.5001 C   0  0  0  0  0  0  0  0  0  0  0  0
    3.0458   -0.6877    0.1703 C   0  0  0  0  0  0  0  0  0  0  0  0
    1.7817    0.1715    0.1765 C   0  0  0  0  0  0  0  0  0  0  0  0
    0.5418   -0.6604   -0.1556 C   0  0  0  0  0  0  0  0  0  0  0  0
   -0.7238    0.2000   -0.1499 C   0  0  0  0  0  0  0  0  0  0  0  0
   -1.9629   -0.6356   -0.4790 C   0  0  0  0  0  0  0  0  0  0  0  0
   -3.2433    0.1966   -0.5907 C   0  0  0  0  0  0  0  0  0  0  0  0
   -3.6564    0.8326    0.7264 C   0  0  0  0  0  0  0  0  0  0  0  0
   -5.3605    1.7521    0.5047 Br  0  0  0  0  0  0  0  0  0  0  0  0
    5.1727   -0.4985    0.4901 H   0  0  0  0  0  0  0  0  0  0  0  0
    4.4251    0.9366   -0.2319 H   0  0  0  0  0  0  0  0  0  0  0  0
    4.1967    0.5882    1.4933 H   0  0  0  0  0  0  0  0  0  0  0  0
    2.9485   -1.4987    0.9015 H   0  0  0  0  0  0  0  0  0  0  0  0
    3.1757   -1.1522   -0.8141 H   0  0  0  0  0  0  0  0  0  0  0  0
    1.8858    0.9835   -0.5535 H   0  0  0  0  0  0  0  0  0  0  0  0
    1.6589    0.6371    1.1620 H   0  0  0  0  0  0  0  0  0  0  0  0
    0.4372   -1.4719    0.5749 H   0  0  0  0  0  0  0  0  0  0  0  0
    0.6656   -1.1259   -1.1410 H   0  0  0  0  0  0  0  0  0  0  0  0
   -0.8357    0.6657    0.8357 H   0  0  0  0  0  0  0  0  0  0  0  0
   -0.6207    1.0092   -0.8828 H   0  0  0  0  0  0  0  0  0  0  0  0
   -1.8048   -1.1500   -1.4351 H   0  0  0  0  0  0  0  0  0  0  0  0
   -2.0967   -1.4154    0.2806 H   0  0  0  0  0  0  0  0  0  0  0  0
   -4.0463   -0.4606   -0.9485 H   0  0  0  0  0  0  0  0  0  0  0  0
   -3.1127    0.9693   -1.3587 H   0  0  0  0  0  0  0  0  0  0  0  0
   -3.8050    0.0880    1.5130 H   0  0  0  0  0  0  0  0  0  0  0  0
   -2.9472    1.5910    1.0662 H   0  0  0  0  0  0  0  0  0  0  0  0
  1  2  1  0
  2  3  1  0
  3  4  1  0
  4  5  1  0
  5  6  1  0
  6  7  1  0
  7  8  1  0
  8  9  1  0
  1 10  1  0
  1 11  1  0
  1 12  1  0
  2 13  1  0
  2 14  1  0
  3 15  1  0
  3 16  1  0
  4 17  1  0
  4 18  1  0
  5 19  1  0
  5 20  1  0
  6 21  1  0
  6 22  1  0
  7 23  1  0
  7 24  1  0
  8 25  1  0
  8 26  1  0
M  END
>  <Energy>  (3) 
-2.419030694129508

>  <Real charge>  (3) 
0

>  <Mult>  (3) 
1

$$$$
mol_990 163
     RDKit          3D

 26 25  0  0  0  0  0  0  0  0999 V2000
   -3.8384   -0.5014   -0.4957 C   0  0  0  0  0  0  0  0  0  0  0  0
   -3.2616    0.8145    0.0030 C   0  0  0  0  0  0  0  0  0  0  0  0
   -1.8541    1.1033   -0.5233 C   0  0  0  0  0  0  0  0  0  0  0  0
   -0.8019    0.1152   -0.0149 C   0  0  0  0  0  0  0  0  0  0  0  0
    0.6006    0.5102   -0.4829 C   0  0  0  0  0  0  0  0  0  0  0  0
    1.6542   -0.4777    0.0211 C   0  0  0  0  0  0  0  0  0  0  0  0
    3.0560   -0.0831   -0.4459 C   0  0  0  0  0  0  0  0  0  0  0  0
    4.0963   -1.0687    0.0584 C   0  0  0  0  0  0  0  0  0  0  0  0
    5.8642   -0.5329   -0.5560 Br  0  0  0  0  0  0  0  0  0  0  0  0
   -4.8774   -0.6044   -0.1664 H   0  0  0  0  0  0  0  0  0  0  0  0
   -3.8237   -0.5480   -1.5892 H   0  0  0  0  0  0  0  0  0  0  0  0
   -3.2816   -1.3578   -0.1045 H   0  0  0  0  0  0  0  0  0  0  0  0
   -3.9246    1.6278   -0.3156 H   0  0  0  0  0  0  0  0  0  0  0  0
   -3.2586    0.8195    1.0992 H   0  0  0  0  0  0  0  0  0  0  0  0
   -1.8642    1.1017   -1.6201 H   0  0  0  0  0  0  0  0  0  0  0  0
   -1.5739    2.1172   -0.2117 H   0  0  0  0  0  0  0  0  0  0  0  0
   -0.8274    0.0825    1.0810 H   0  0  0  0  0  0  0  0  0  0  0  0
   -1.0290   -0.8940   -0.3762 H   0  0  0  0  0  0  0  0  0  0  0  0
    0.6252    0.5465   -1.5788 H   0  0  0  0  0  0  0  0  0  0  0  0
    0.8391    1.5175   -0.1203 H   0  0  0  0  0  0  0  0  0  0  0  0
    1.6290   -0.5141    1.1171 H   0  0  0  0  0  0  0  0  0  0  0  0
    1.4164   -1.4852   -0.3417 H   0  0  0  0  0  0  0  0  0  0  0  0
    3.0792   -0.0417   -1.5422 H   0  0  0  0  0  0  0  0  0  0  0  0
    3.2914    0.9268   -0.0870 H   0  0  0  0  0  0  0  0  0  0  0  0
    3.9247   -2.0780   -0.3257 H   0  0  0  0  0  0  0  0  0  0  0  0
    4.1400   -1.0955    1.1506 H   0  0  0  0  0  0  0  0  0  0  0  0
  1  2  1  0
  2  3  1  0
  3  4  1  0
  4  5  1  0
  5  6  1  0
  6  7  1  0
  7  8  1  0
  8  9  1  0
  1 10  1  0
  1 11  1  0
  1 12  1  0
  2 13  1  0
  2 14  1  0
  3 15  1  0
  3 16  1  0
  4 17  1  0
  4 18  1  0
  5 19  1  0
  5 20  1  0
  6 21  1  0
  6 22  1  0
  7 23  1  0
  7 24  1  0
  8 25  1  0
  8 26  1  0
M  END
>  <Energy>  (4) 
-2.358713584258076

>  <Real charge>  (4) 
0

>  <Mult>  (4) 
1

$$$$
mol_990 185
     RDKit          3D

 26 25  0  0  0  0  0  0  0  0999 V2000
   -4.1833    0.0427    0.8970 C   0  0  0  0  0  0  0  0  0  0  0  0
   -2.7513   -0.4677    0.9179 C   0  0  0  0  0  0  0  0  0  0  0  0
   -1.8741    0.2843   -0.0829 C   0  0  0  0  0  0  0  0  0  0  0  0
   -0.4338   -0.2326   -0.0592 C   0  0  0  0  0  0  0  0  0  0  0  0
    0.4428    0.5248   -1.0591 C   0  0  0  0  0  0  0  0  0  0  0  0
    1.8675   -0.0276   -1.1609 C   0  0  0  0  0  0  0  0  0  0  0  0
    2.6835    0.1519    0.1209 C   0  0  0  0  0  0  0  0  0  0  0  0
    4.1182   -0.3084   -0.0804 C   0  0  0  0  0  0  0  0  0  0  0  0
    5.1250   -0.0679    1.5686 Br  0  0  0  0  0  0  0  0  0  0  0  0
   -4.2250    1.1050    1.1578 H   0  0  0  0  0  0  0  0  0  0  0  0
   -4.7927   -0.5087    1.6199 H   0  0  0  0  0  0  0  0  0  0  0  0
   -4.6313   -0.0862   -0.0934 H   0  0  0  0  0  0  0  0  0  0  0  0
   -2.3439   -0.3542    1.9293 H   0  0  0  0  0  0  0  0  0  0  0  0
   -2.7478   -1.5388    0.6849 H   0  0  0  0  0  0  0  0  0  0  0  0
   -2.2890    0.1712   -1.0919 H   0  0  0  0  0  0  0  0  0  0  0  0
   -1.8836    1.3557    0.1523 H   0  0  0  0  0  0  0  0  0  0  0  0
   -0.4242   -1.3028   -0.2983 H   0  0  0  0  0  0  0  0  0  0  0  0
   -0.0309   -0.1214    0.9536 H   0  0  0  0  0  0  0  0  0  0  0  0
   -0.0170    0.4668   -2.0535 H   0  0  0  0  0  0  0  0  0  0  0  0
    0.4787    1.5875   -0.7899 H   0  0  0  0  0  0  0  0  0  0  0  0
    2.3759    0.4906   -1.9837 H   0  0  0  0  0  0  0  0  0  0  0  0
    1.8316   -1.0899   -1.4316 H   0  0  0  0  0  0  0  0  0  0  0  0
    2.6674    1.2068    0.4217 H   0  0  0  0  0  0  0  0  0  0  0  0
    2.2285   -0.4189    0.9385 H   0  0  0  0  0  0  0  0  0  0  0  0
    4.6327    0.2763   -0.8479 H   0  0  0  0  0  0  0  0  0  0  0  0
    4.1760   -1.3714   -0.3299 H   0  0  0  0  0  0  0  0  0  0  0  0
  1  2  1  0
  2  3  1  0
  3  4  1  0
  4  5  1  0
  5  6  1  0
  6  7  1  0
  7  8  1  0
  8  9  1  0
  1 10  1  0
  1 11  1  0
  1 12  1  0
  2 13  1  0
  2 14  1  0
  3 15  1  0
  3 16  1  0
  4 17  1  0
  4 18  1  0
  5 19  1  0
  5 20  1  0
  6 21  1  0
  6 22  1  0
  7 23  1  0
  7 24  1  0
  8 25  1  0
  8 26  1  0
M  END
>  <Energy>  (5) 
-2.320056768206879

>  <Real charge>  (5) 
0

>  <Mult>  (5) 
1

$$$$
mol_990 40
     RDKit          3D

 26 25  0  0  0  0  0  0  0  0999 V2000
   -3.9072   -0.2397   -0.8486 C   0  0  0  0  0  0  0  0  0  0  0  0
   -3.0194   -0.2793    0.3850 C   0  0  0  0  0  0  0  0  0  0  0  0
   -1.5931    0.1696    0.0637 C   0  0  0  0  0  0  0  0  0  0  0  0
   -0.7046    0.1236    1.3087 C   0  0  0  0  0  0  0  0  0  0  0  0
    0.7055    0.6718    1.0714 C   0  0  0  0  0  0  0  0  0  0  0  0
    1.5333   -0.1764    0.1032 C   0  0  0  0  0  0  0  0  0  0  0  0
    2.9662    0.3491   -0.0078 C   0  0  0  0  0  0  0  0  0  0  0  0
    3.7828   -0.4935   -0.9730 C   0  0  0  0  0  0  0  0  0  0  0  0
    5.5961    0.2056   -1.0865 Br  0  0  0  0  0  0  0  0  0  0  0  0
   -3.5233   -0.9034   -1.6298 H   0  0  0  0  0  0  0  0  0  0  0  0
   -4.9217   -0.5636   -0.5960 H   0  0  0  0  0  0  0  0  0  0  0  0
   -3.9661    0.7742   -1.2571 H   0  0  0  0  0  0  0  0  0  0  0  0
   -3.4492    0.3689    1.1576 H   0  0  0  0  0  0  0  0  0  0  0  0
   -3.0069   -1.2991    0.7868 H   0  0  0  0  0  0  0  0  0  0  0  0
   -1.1812   -0.4800   -0.7166 H   0  0  0  0  0  0  0  0  0  0  0  0
   -1.6113    1.1899   -0.3380 H   0  0  0  0  0  0  0  0  0  0  0  0
   -0.6410   -0.9062    1.6809 H   0  0  0  0  0  0  0  0  0  0  0  0
   -1.1719    0.7179    2.1038 H   0  0  0  0  0  0  0  0  0  0  0  0
    1.2212    0.7161    2.0388 H   0  0  0  0  0  0  0  0  0  0  0  0
    0.6420    1.7020    0.7005 H   0  0  0  0  0  0  0  0  0  0  0  0
    1.5502   -1.2173    0.4480 H   0  0  0  0  0  0  0  0  0  0  0  0
    1.0724   -0.1697   -0.8908 H   0  0  0  0  0  0  0  0  0  0  0  0
    2.9484    1.3935   -0.3441 H   0  0  0  0  0  0  0  0  0  0  0  0
    3.4367    0.3445    0.9834 H   0  0  0  0  0  0  0  0  0  0  0  0
    3.8682   -1.5313   -0.6397 H   0  0  0  0  0  0  0  0  0  0  0  0
    3.3739   -0.4674   -1.9868 H   0  0  0  0  0  0  0  0  0  0  0  0
  1  2  1  0
  2  3  1  0
  3  4  1  0
  4  5  1  0
  5  6  1  0
  6  7  1  0
  7  8  1  0
  8  9  1  0
  1 10  1  0
  1 11  1  0
  1 12  1  0
  2 13  1  0
  2 14  1  0
  3 15  1  0
  3 16  1  0
  4 17  1  0
  4 18  1  0
  5 19  1  0
  5 20  1  0
  6 21  1  0
  6 22  1  0
  7 23  1  0
  7 24  1  0
  8 25  1  0
  8 26  1  0
M  END
>  <Energy>  (6) 
-2.313935680329224

>  <Real charge>  (6) 
0

>  <Mult>  (6) 
1

$$$$
mol_990 142
     RDKit          3D

 26 25  0  0  0  0  0  0  0  0999 V2000
   -4.0129    0.4889   -0.9010 C   0  0  0  0  0  0  0  0  0  0  0  0
   -2.6203    0.6333   -0.3062 C   0  0  0  0  0  0  0  0  0  0  0  0
   -2.1092   -0.6982    0.2452 C   0  0  0  0  0  0  0  0  0  0  0  0
   -0.7585   -0.5841    0.9576 C   0  0  0  0  0  0  0  0  0  0  0  0
    0.3924   -0.2060    0.0226 C   0  0  0  0  0  0  0  0  0  0  0  0
    1.7328   -0.2181    0.7614 C   0  0  0  0  0  0  0  0  0  0  0  0
    2.8851    0.1631   -0.1692 C   0  0  0  0  0  0  0  0  0  0  0  0
    4.2116    0.1483    0.5711 C   0  0  0  0  0  0  0  0  0  0  0  0
    5.6506    0.6380   -0.6452 Br  0  0  0  0  0  0  0  0  0  0  0  0
   -4.0150   -0.2340   -1.7231 H   0  0  0  0  0  0  0  0  0  0  0  0
   -4.7299    0.1527   -0.1452 H   0  0  0  0  0  0  0  0  0  0  0  0
   -4.3590    1.4504   -1.2930 H   0  0  0  0  0  0  0  0  0  0  0  0
   -2.6473    1.3825    0.4934 H   0  0  0  0  0  0  0  0  0  0  0  0
   -1.9458    1.0085   -1.0831 H   0  0  0  0  0  0  0  0  0  0  0  0
   -2.0361   -1.4322   -0.5666 H   0  0  0  0  0  0  0  0  0  0  0  0
   -2.8405   -1.0929    0.9617 H   0  0  0  0  0  0  0  0  0  0  0  0
   -0.5366   -1.5516    1.4249 H   0  0  0  0  0  0  0  0  0  0  0  0
   -0.8320    0.1490    1.7702 H   0  0  0  0  0  0  0  0  0  0  0  0
    0.4303   -0.9099   -0.8175 H   0  0  0  0  0  0  0  0  0  0  0  0
    0.2241    0.7924   -0.3961 H   0  0  0  0  0  0  0  0  0  0  0  0
    1.6937    0.4830    1.6040 H   0  0  0  0  0  0  0  0  0  0  0  0
    1.9136   -1.2162    1.1789 H   0  0  0  0  0  0  0  0  0  0  0  0
    2.7020    1.1596   -0.5904 H   0  0  0  0  0  0  0  0  0  0  0  0
    2.9198   -0.5353   -1.0148 H   0  0  0  0  0  0  0  0  0  0  0  0
    4.2329    0.8742    1.3885 H   0  0  0  0  0  0  0  0  0  0  0  0
    4.4540   -0.8453    0.9579 H   0  0  0  0  0  0  0  0  0  0  0  0
  1  2  1  0
  2  3  1  0
  3  4  1  0
  4  5  1  0
  5  6  1  0
  6  7  1  0
  7  8  1  0
  8  9  1  0
  1 10  1  0
  1 11  1  0
  1 12  1  0
  2 13  1  0
  2 14  1  0
  3 15  1  0
  3 16  1  0
  4 17  1  0
  4 18  1  0
  5 19  1  0
  5 20  1  0
  6 21  1  0
  6 22  1  0
  7 23  1  0
  7 24  1  0
  8 25  1  0
  8 26  1  0
M  END
>  <Energy>  (7) 
-2.3093613330165983

>  <Real charge>  (7) 
0

>  <Mult>  (7) 
1

$$$$
