mol_281 35
     RDKit          3D

 17 17  0  0  0  0  0  0  0  0999 V2000
    2.6322   -0.8487    0.3011 N   0  0  0  0  0  0  0  0  0  0  0  0
    1.8465    0.2568    0.1304 C   0  0  0  0  0  0  0  0  0  0  0  0
    2.3490    1.3670   -0.0169 O   0  0  0  0  0  0  0  0  0  0  0  0
    0.3712    0.0809    0.0754 C   0  0  0  0  0  0  0  0  0  0  0  0
   -0.2493   -1.0834    0.5521 C   0  0  0  0  0  0  0  0  0  0  0  0
   -1.6388   -1.2227    0.4761 C   0  0  0  0  0  0  0  0  0  0  0  0
   -2.4169   -0.2018   -0.0686 C   0  0  0  0  0  0  0  0  0  0  0  0
   -1.8111    0.9664   -0.5287 C   0  0  0  0  0  0  0  0  0  0  0  0
   -0.4270    1.1099   -0.4493 C   0  0  0  0  0  0  0  0  0  0  0  0
    0.0830    2.2963   -0.9084 O   0  0  0  0  0  0  0  0  0  0  0  0
    2.2929   -1.7851    0.1358 H   0  0  0  0  0  0  0  0  0  0  0  0
    3.6296   -0.7007    0.2061 H   0  0  0  0  0  0  0  0  0  0  0  0
    0.3245   -1.8843    1.0076 H   0  0  0  0  0  0  0  0  0  0  0  0
   -2.1166   -2.1258    0.8490 H   0  0  0  0  0  0  0  0  0  0  0  0
   -3.4972   -0.3098   -0.1266 H   0  0  0  0  0  0  0  0  0  0  0  0
   -2.4147    1.7694   -0.9437 H   0  0  0  0  0  0  0  0  0  0  0  0
    1.0427    2.3156   -0.6914 H   0  0  0  0  0  0  0  0  0  0  0  0
  1  2  1  0
  2  3  2  0
  2  4  1  0
  4  5  2  0
  5  6  1  0
  6  7  2  0
  7  8  1  0
  8  9  2  0
  9 10  1  0
  9  4  1  0
  1 11  1  0
  1 12  1  0
  5 13  1  0
  6 14  1  0
  7 15  1  0
  8 16  1  0
 10 17  1  0
M  END
>  <Energy>  (1) 
2.1609833986117852

>  <Real charge>  (1) 
0

>  <Mult>  (1) 
1

$$$$
