mol_200 239
     RDKit          3D

 21 20  0  0  0  0  0  0  0  0999 V2000
    1.8056   -0.9908    0.7692 C   0  0  0  0  0  0  0  0  0  0  0  0
    1.1789    0.2558    0.1527 C   0  0  0  0  0  0  0  0  0  0  0  0
    2.1481    0.9083   -0.8257 C   0  0  0  0  0  0  0  0  0  0  0  0
    0.0102   -0.1053   -0.5880 O   0  0  0  0  0  0  0  0  0  0  0  0
   -1.1849   -0.1940    0.1922 C   0  0  0  0  0  0  0  0  0  0  0  0
   -1.8244    1.1852    0.3163 C   0  0  0  0  0  0  0  0  0  0  0  0
   -2.1246   -1.1513   -0.5310 C   0  0  0  0  0  0  0  0  0  0  0  0
    2.0152   -1.7435    0.0012 H   0  0  0  0  0  0  0  0  0  0  0  0
    1.1266   -1.4589    1.4886 H   0  0  0  0  0  0  0  0  0  0  0  0
    2.7384   -0.7493    1.2882 H   0  0  0  0  0  0  0  0  0  0  0  0
    0.9334    0.9797    0.9379 H   0  0  0  0  0  0  0  0  0  0  0  0
    2.3987    0.2269   -1.6464 H   0  0  0  0  0  0  0  0  0  0  0  0
    1.6900    1.7932   -1.2809 H   0  0  0  0  0  0  0  0  0  0  0  0
    3.0732    1.2131   -0.3270 H   0  0  0  0  0  0  0  0  0  0  0  0
   -0.9704   -0.5989    1.1876 H   0  0  0  0  0  0  0  0  0  0  0  0
   -1.1672    1.8780    0.8510 H   0  0  0  0  0  0  0  0  0  0  0  0
   -2.0036    1.6234   -0.6718 H   0  0  0  0  0  0  0  0  0  0  0  0
   -2.7757    1.1333    0.8551 H   0  0  0  0  0  0  0  0  0  0  0  0
   -3.0677   -1.2697    0.0110 H   0  0  0  0  0  0  0  0  0  0  0  0
   -1.6567   -2.1364   -0.6351 H   0  0  0  0  0  0  0  0  0  0  0  0
   -2.3432   -0.7987   -1.5452 H   0  0  0  0  0  0  0  0  0  0  0  0
  1  2  1  0
  2  3  1  0
  2  4  1  0
  4  5  1  0
  5  6  1  0
  5  7  1  0
  1  8  1  0
  1  9  1  0
  1 10  1  0
  2 11  1  0
  3 12  1  0
  3 13  1  0
  3 14  1  0
  5 15  1  0
  6 16  1  0
  6 17  1  0
  6 18  1  0
  7 19  1  0
  7 20  1  0
  7 21  1  0
M  END
>  <Energy>  (1) 
9.403999072797976

>  <Real charge>  (1) 
0

>  <Mult>  (1) 
1

$$$$
