mol_366 4
     RDKit          3D

 10 10  0  0  0  0  0  0  0  0999 V2000
   -1.1374    0.0767   -0.1465 C   0  0  0  0  0  0  0  0  0  0  0  0
   -0.4754   -1.1294   -0.1668 C   0  0  0  0  0  0  0  0  0  0  0  0
    0.8546   -1.2509    0.0016 N   0  0  0  0  0  0  0  0  0  0  0  0
    1.5221   -0.1026    0.1960 C   0  0  0  0  0  0  0  0  0  0  0  0
    0.9847    1.1269    0.2353 N   0  0  0  0  0  0  0  0  0  0  0  0
   -0.3487    1.1849    0.0606 C   0  0  0  0  0  0  0  0  0  0  0  0
   -2.2067    0.1487   -0.2842 H   0  0  0  0  0  0  0  0  0  0  0  0
   -1.0103   -2.0614   -0.3237 H   0  0  0  0  0  0  0  0  0  0  0  0
    2.5952   -0.1749    0.3343 H   0  0  0  0  0  0  0  0  0  0  0  0
   -0.7781    2.1819    0.0933 H   0  0  0  0  0  0  0  0  0  0  0  0
  1  2  2  0
  2  3  1  0
  3  4  2  0
  4  5  1  0
  5  6  2  0
  6  1  1  0
  1  7  1  0
  2  8  1  0
  4  9  1  0
  6 10  1  0
M  END
>  <Energy>  (1) 
-7.492950877462094

>  <Real charge>  (1) 
0

>  <Mult>  (1) 
1

$$$$
