mol_102 4
     RDKit          3D

 16 17  0  0  0  0  0  0  0  0999 V2000
    2.1995   -0.6649    0.0672 C   0  0  0  0  0  0  0  0  0  0  0  0
    3.7140   -1.5163    0.1758 Cl  0  0  0  0  0  0  0  0  0  0  0  0
    2.1792    0.7160   -0.1511 C   0  0  0  0  0  0  0  0  0  0  0  0
    3.6681    1.6025   -0.3173 Cl  0  0  0  0  0  0  0  0  0  0  0  0
    0.9457    1.3810   -0.2351 C   0  0  0  0  0  0  0  0  0  0  0  0
    0.8950    3.1058   -0.5074 Cl  0  0  0  0  0  0  0  0  0  0  0  0
   -0.2727    0.6959   -0.1055 C   0  0  0  0  0  0  0  0  0  0  0  0
   -1.4567    1.3555   -0.1894 N   0  0  0  0  0  0  0  0  0  0  0  0
   -2.5951    0.6464   -0.0574 C   0  0  0  0  0  0  0  0  0  0  0  0
   -2.5752   -0.7068    0.1565 C   0  0  0  0  0  0  0  0  0  0  0  0
   -1.4163   -1.3891    0.2445 N   0  0  0  0  0  0  0  0  0  0  0  0
   -0.2521   -0.7020    0.1155 C   0  0  0  0  0  0  0  0  0  0  0  0
    0.9860   -1.3584    0.1980 C   0  0  0  0  0  0  0  0  0  0  0  0
    0.9861   -3.0838    0.4713 Cl  0  0  0  0  0  0  0  0  0  0  0  0
   -3.5211    1.2048   -0.1298 H   0  0  0  0  0  0  0  0  0  0  0  0
   -3.4845   -1.2867    0.2641 H   0  0  0  0  0  0  0  0  0  0  0  0
  1  2  1  0
  1  3  2  0
  3  4  1  0
  3  5  1  0
  5  6  1  0
  5  7  2  0
  7  8  1  0
  8  9  2  0
  9 10  1  0
 10 11  2  0
 11 12  1  0
 12 13  2  0
 13 14  1  0
 12  7  1  0
 13  1  1  0
  9 15  1  0
 10 16  1  0
M  END
>  <Energy>  (1) 
96.10134778783896

>  <Real charge>  (1) 
0

>  <Mult>  (1) 
1

$$$$
