mol_460 1
     RDKit          3D

 14 15  0  0  0  0  0  0  0  0999 V2000
   -1.7255    0.7908    0.2436 C   0  0  0  0  0  0  0  0  0  0  0  0
   -1.8068   -0.6041    0.1363 C   0  0  0  0  0  0  0  0  0  0  0  0
   -0.6621   -1.3899   -0.0470 C   0  0  0  0  0  0  0  0  0  0  0  0
    0.5395   -0.6956   -0.1134 C   0  0  0  0  0  0  0  0  0  0  0  0
    1.7902   -1.2150   -0.2855 O   0  0  0  0  0  0  0  0  0  0  0  0
    2.5958   -0.1150   -0.2774 C   0  0  0  0  0  0  0  0  0  0  0  0
    1.9845    1.0391   -0.1186 N   0  0  0  0  0  0  0  0  0  0  0  0
    0.6635    0.6816   -0.0119 C   0  0  0  0  0  0  0  0  0  0  0  0
   -0.4905    1.4540    0.1712 C   0  0  0  0  0  0  0  0  0  0  0  0
   -2.6346    1.3723    0.3856 H   0  0  0  0  0  0  0  0  0  0  0  0
   -2.7802   -1.0880    0.1966 H   0  0  0  0  0  0  0  0  0  0  0  0
   -0.7046   -2.4682   -0.1320 H   0  0  0  0  0  0  0  0  0  0  0  0
    3.6544   -0.2948   -0.4015 H   0  0  0  0  0  0  0  0  0  0  0  0
   -0.4236    2.5329    0.2538 H   0  0  0  0  0  0  0  0  0  0  0  0
  1  2  2  0
  2  3  1  0
  3  4  2  0
  4  5  1  0
  5  6  1  0
  6  7  2  0
  7  8  1  0
  8  9  2  0
  8  4  1  0
  9  1  1  0
  1 10  1  0
  2 11  1  0
  3 12  1  0
  6 13  1  0
  9 14  1  0
M  END
>  <Energy>  (1) 
18.660895574859683

>  <Real charge>  (1) 
0

>  <Mult>  (1) 
1

$$$$
