mol_1036 336
     RDKit          3D

 22 21  0  0  0  0  0  0  0  0999 V2000
    1.8303   -0.4849    1.2932 C   0  0  0  0  0  0  0  0  0  0  0  0
    1.2980   -0.2232   -0.1105 C   0  0  0  0  0  0  0  0  0  0  0  0
    2.3259    0.5211   -0.9577 C   0  0  0  0  0  0  0  0  0  0  0  0
   -0.0072    0.5651   -0.0194 C   0  0  0  0  0  0  0  0  0  0  0  0
   -0.0229    1.7961   -0.0616 O   0  0  0  0  0  0  0  0  0  0  0  0
   -1.2920   -0.2480    0.1267 C   0  0  0  0  0  0  0  0  0  0  0  0
   -1.8163   -0.6187   -1.2554 C   0  0  0  0  0  0  0  0  0  0  0  0
   -2.3392    0.5262    0.9218 C   0  0  0  0  0  0  0  0  0  0  0  0
    2.7566   -1.0676    1.2573 H   0  0  0  0  0  0  0  0  0  0  0  0
    2.0366    0.4530    1.8210 H   0  0  0  0  0  0  0  0  0  0  0  0
    1.1037   -1.0437    1.8924 H   0  0  0  0  0  0  0  0  0  0  0  0
    1.0856   -1.1788   -0.6037 H   0  0  0  0  0  0  0  0  0  0  0  0
    3.2346   -0.0775   -1.0803 H   0  0  0  0  0  0  0  0  0  0  0  0
    2.6090    1.4760   -0.5010 H   0  0  0  0  0  0  0  0  0  0  0  0
    1.9246    0.7368   -1.9539 H   0  0  0  0  0  0  0  0  0  0  0  0
   -1.0558   -1.1619    0.6839 H   0  0  0  0  0  0  0  0  0  0  0  0
   -2.7275   -1.2209   -1.1788 H   0  0  0  0  0  0  0  0  0  0  0  0
   -1.0751   -1.1986   -1.8155 H   0  0  0  0  0  0  0  0  0  0  0  0
   -2.0458    0.2752   -1.8460 H   0  0  0  0  0  0  0  0  0  0  0  0
   -2.6461    1.4400    0.4010 H   0  0  0  0  0  0  0  0  0  0  0  0
   -1.9444    0.8198    1.9005 H   0  0  0  0  0  0  0  0  0  0  0  0
   -3.2325   -0.0855    1.0859 H   0  0  0  0  0  0  0  0  0  0  0  0
  1  2  1  0
  2  3  1  0
  2  4  1  0
  4  5  2  0
  4  6  1  0
  6  7  1  0
  6  8  1  0
  1  9  1  0
  1 10  1  0
  1 11  1  0
  2 12  1  0
  3 13  1  0
  3 14  1  0
  3 15  1  0
  6 16  1  0
  7 17  1  0
  7 18  1  0
  7 19  1  0
  8 20  1  0
  8 21  1  0
  8 22  1  0
M  END
>  <Energy>  (1) 
7.960313899912276

>  <Real charge>  (1) 
0

>  <Mult>  (1) 
1

$$$$
