-13.71437836
     RDKit          3D

 11 11  0  0  0  0  0  0  0  0999 V2000
   -1.1659   -0.2953   -0.0001 C   0  0  0  0  0  0  0  0  0  0  0  0
   -0.7225    0.9682    0.0000 C   0  0  0  0  0  0  0  0  0  0  0  0
    0.7255    0.9661    0.0000 C   0  0  0  0  0  0  0  0  0  0  0  0
    1.1650   -0.2988   -0.0000 C   0  0  0  0  0  0  0  0  0  0  0  0
   -0.0019   -1.2303    0.0001 C   0  0  0  0  0  0  0  0  0  0  0  0
   -2.1865   -0.6316   -0.0001 H   0  0  0  0  0  0  0  0  0  0  0  0
   -1.3201    1.8625    0.0003 H   0  0  0  0  0  0  0  0  0  0  0  0
    1.3258    1.8584   -0.0002 H   0  0  0  0  0  0  0  0  0  0  0  0
    2.1845   -0.6382   -0.0001 H   0  0  0  0  0  0  0  0  0  0  0  0
   -0.0027   -1.8804   -0.8777 H   0  0  0  0  0  0  0  0  0  0  0  0
   -0.0029   -1.8804    0.8779 H   0  0  0  0  0  0  0  0  0  0  0  0
  1  2  2  0
  1  5  1  0
  2  3  1  0
  2  7  1  0
  4  3  2  0
  4  5  1  0
  5 11  1  0
  6  1  1  0
  8  3  1  0
  9  4  1  0
 10  5  1  0
M  END
>  <Energy>  (1) 
-13.71437836


>  <Real charge>  (1) 
0

>  <Mult>  (1) 
1

$$$$
