-14.76051150
     RDKit          3D

 13 13  0  0  0  0  0  0  0  0999 V2000
    0.6601    1.0444    0.0373 C   0  0  0  0  0  0  0  0  0  0  0  0
   -0.6607    1.0440    0.0373 C   0  0  0  0  0  0  0  0  0  0  0  0
   -1.2250   -0.3396   -0.0886 C   0  0  0  0  0  0  0  0  0  0  0  0
    0.0004   -1.2485    0.1131 C   0  0  0  0  0  0  0  0  0  0  0  0
    1.2251   -0.3389   -0.0887 C   0  0  0  0  0  0  0  0  0  0  0  0
    1.2989    1.9091    0.0944 H   0  0  0  0  0  0  0  0  0  0  0  0
   -1.3000    1.9083    0.0943 H   0  0  0  0  0  0  0  0  0  0  0  0
   -2.0084   -0.5322    0.6459 H   0  0  0  0  0  0  0  0  0  0  0  0
   -1.6658   -0.4722   -1.0811 H   0  0  0  0  0  0  0  0  0  0  0  0
    0.0007   -2.0932   -0.5735 H   0  0  0  0  0  0  0  0  0  0  0  0
    0.0005   -1.6427    1.1299 H   0  0  0  0  0  0  0  0  0  0  0  0
    2.0087   -0.5311    0.6459 H   0  0  0  0  0  0  0  0  0  0  0  0
    1.6660   -0.4711   -1.0811 H   0  0  0  0  0  0  0  0  0  0  0  0
  1  6  1  0
  2  1  2  0
  2  7  1  0
  3  2  1  0
  3  4  1  0
  3  8  1  0
  4 11  1  0
  5  1  1  0
  5  4  1  0
  5 12  1  0
  9  3  1  0
 10  4  1  0
 13  5  1  0
M  END
>  <Energy>  (1) 
-14.76051150


>  <Real charge>  (1) 
0

>  <Mult>  (1) 
1

$$$$
