21
 energy: -25.362125073836 gnorm: 0.000380519493 xtb: 6.3.3 (7355c4f)
C         0.14865228118198   -1.09334584163441    1.56776256358220
C         1.29950531584922   -0.52442600211081    0.77256863341051
C         1.17965691091639    0.79697489777454    0.79229046152646
C        -0.05262182852686    1.12585034232757    1.60086275317752
C        -0.93712732069316   -0.06784937322325    1.23227952280006
C         0.49303181861692   -0.73478772465452    3.02008455944134
C         0.35448462987354    0.79228168344360    3.04287206374638
C        -0.77371727474005    0.67611906003310    4.08455412288782
C        -0.63474604004572   -0.85440387819846    4.06182230922527
H        -0.08386458071474   -2.14262132786666    1.39718537134537
H         2.09041364447357   -1.11526225243345    0.34805053518710
H         1.85024603758353    1.53276362612925    0.38759205688236
H        -0.47051673597872    2.12077059706603    1.46074346913639
H        -1.19992210645577   -0.07592358946558    0.17498773951654
H        -1.84151701331430   -0.15875738580744    1.82673942104347
H         1.44612337365165   -1.16304998806615    3.32935819973410
H         1.21575901461253    1.37565762569536    3.36735960587096
H        -1.73638274958674    1.06479425699335    3.75819435544187
H        -0.52676060419481    1.12558049001577    5.04433439740056
H        -1.51259836866678   -1.40033875910217    3.72179004283758
H        -0.30809740384200   -1.28002645691610    5.00856681580678
