21
 energy: -25.303882094143 gnorm: 0.000813133942 xtb: 6.3.3 (7355c4f)
C         0.16784520364489   -1.07889863907849    1.51563371952409
C         1.22814205825688   -0.57770075505365    0.80438854064006
C         1.10165705043789    0.83430060328158    0.82505224384756
C        -0.03068334614422    1.11812821271083    1.54885696640545
C        -0.90755292308077   -0.06460153068196    1.23433463861765
C         0.50129338769633   -0.68182397414784    3.03764852856794
C         0.37196332887170    0.74195419944120    3.05904664176520
C        -0.74884922320954    0.64102208670936    4.05498389208856
C        -0.61505231697307   -0.81557119573336    4.03354189223993
H        -0.09633600925718   -2.12730726075163    1.41547579802282
H         2.07856878747323   -1.11450950461907    0.41398525012993
H         1.84128680977039    1.52688303625829    0.45015029795736
H        -0.47753167120798    2.10506566977686    1.47783620903792
H        -1.21297074304637   -0.07632096397568    0.17371762365181
H        -1.82066184651284   -0.15695452149273    1.84667470153157
H         1.44169553715202   -1.14720344105122    3.31513312098475
H         1.21126917050703    1.35962284028532    3.35405953343794
H        -1.72022308808507    1.06032495205256    3.72440162835848
H        -0.51958427922915    1.11541170795956    5.03099086970010
H        -1.49362019178563   -1.39371435004123    3.68888495763253
H        -0.30065469527888   -1.26810717184914    4.99520194585896
