  10
        -11.55796970
 C          0.7813928137        0.6643291588       -0.0000843541
 C          0.7813409261       -0.6644068788        0.0000931537
 C         -0.7179898596       -0.7752681561       -0.0000635230
 C         -0.7179071601        0.7753385643        0.0000749172
 H          1.5474558039        1.4185884447       -0.0001657161
 H          1.5473385274       -1.4187040682        0.0001347814
 H         -1.1518297394       -1.2337281699        0.8873524733
 H         -1.1514759228       -1.2333391871       -0.8878437859
 H         -1.1515684096        1.2336663753       -0.8874676962
 H         -1.1514152942        1.2336037386        0.8877492964
