10
-11.55796970
C          0.78139        0.66433       -0.00008
C          0.78134       -0.66441        0.00009
C         -0.71799       -0.77527       -0.00006
C         -0.71791        0.77534        0.00007
H          1.54746        1.41859       -0.00017
H          1.54734       -1.41870        0.00013
H         -1.15183       -1.23373        0.88735
H         -1.15148       -1.23334       -0.88784
H         -1.15157        1.23367       -0.88747
H         -1.15142        1.23360        0.88775
