Me 13
     RDKit          3D

  5  4  0  0  0  0  0  0  0  0999 V2000
    0.0000   -0.0000    0.0000 C   0  0  0  0  0  0  0  0  0  0  0  0
   -0.4149   -0.6396   -0.7821 H   0  0  0  0  0  0  0  0  0  0  0  0
    0.1146    1.0162   -0.3835 H   0  0  0  0  0  0  0  0  0  0  0  0
   -0.6745    0.0089    0.8590 H   0  0  0  0  0  0  0  0  0  0  0  0
    0.9748   -0.3856    0.3065 H   0  0  0  0  0  0  0  0  0  0  0  0
  1  2  1  0
  1  3  1  0
  1  4  1  0
  1  5  1  0
M  END
>  <Energy>  (1) 
0.026382646649498263

>  <Real charge>  (1) 
0

>  <Mult>  (1) 
1

>  <SMILES>  (1) 
C

$$$$
