  18
  -22.1728054200000        1.00000000000000      !md1
 C          1.0525553159       -0.4050889729        0.7524226128
 C         -0.4456376274       -0.3240827134        1.1165887297
 C         -0.9784104604        1.0115123150        0.6637338971
 C         -0.9784477520        1.0112749081       -0.6640604915
 C         -0.4457455323       -0.3245192957       -1.1164481879
 C         -1.0256242304       -1.2142674568        0.0002492174
 C          1.0524724114       -0.4055811680       -0.7522203322
 C          1.7016897820        0.7160645328       -0.0002839163
 H          1.6594044812       -1.0717596893        1.3463729980
 H         -0.6667023889       -0.6046207749        2.1435413764
 H         -1.2443763958        1.8118269708        1.3303055764
 H         -1.2444607072        1.8113052907       -1.3309340656
 H         -0.6669559204       -0.6053682854       -2.1433090639
 H         -2.1151406896       -1.2507792857        0.0003431594
 H         -0.6227033066       -2.2264391943        0.0003602276
 H          1.6590563002       -1.0728130695       -1.3457192822
 H          1.2590801484        1.6989185134       -0.0005947974
 H          2.7829926913        0.7314139936       -0.0001460122
