18
-22.17280542
C          1.05256       -0.40509        0.75242
C         -0.44564       -0.32408        1.11659
C         -0.97841        1.01151        0.66373
C         -0.97845        1.01127       -0.66406
C         -0.44575       -0.32452       -1.11645
C         -1.02562       -1.21427        0.00025
C          1.05247       -0.40558       -0.75222
C          1.70169        0.71606       -0.00028
H          1.65940       -1.07176        1.34637
H         -0.66670       -0.60462        2.14354
H         -1.24438        1.81183        1.33031
H         -1.24446        1.81131       -1.33093
H         -0.66696       -0.60537       -2.14331
H         -2.11514       -1.25078        0.00034
H         -0.62270       -2.22644        0.00036
H          1.65906       -1.07281       -1.34572
H          1.25908        1.69892       -0.00059
H          2.78299        0.73141       -0.00015
