  13
        -14.76051150
 C          0.6600864217        1.0444215598        0.0373375877
 C         -0.6607075203        1.0440220900        0.0373201978
 C         -1.2249626418       -0.3395835362       -0.0886302240
 C          0.0003821097       -1.2484734043        0.1131355460
 C          1.2251529848       -0.3388593170       -0.0886452320
 H          1.2988627754        1.9091441222        0.0944344401
 H         -1.2999964102        1.9083438450        0.0942498459
 H         -2.0084291609       -0.5322068639        0.6459148636
 H         -1.6657520064       -0.4721507145       -1.0810821555
 H          0.0006947551       -2.0932128968       -0.5734680966
 H          0.0004682936       -1.6426756773        1.1298459063
 H          2.0087184383       -0.5310457756        0.6458817674
 H          1.6660130215       -0.4710948461       -1.0811165873
