  13
  -14.7605115000000       0.500010581948349      !gc
 C          0.6600864244        1.0444215581        0.0373375877
 C         -0.6607075176        1.0440220917        0.0373201978
 C         -1.2249626427       -0.3395835331       -0.0886302240
 C          0.0003821065       -1.2484734043        0.1131355460
 C          1.2251529839       -0.3388593201       -0.0886452320
 H          1.2988627803        1.9091441189        0.0944344401
 H         -1.2999964054        1.9083438483        0.0942498459
 H         -2.0084291623       -0.5322068588        0.6459148636
 H         -1.6657520076       -0.4721507102       -1.0810821555
 H          0.0006947498       -2.0932128968       -0.5734680966
 H          0.0004682894       -1.6426756773        1.1298459063
 H          2.0087184369       -0.5310457807        0.6458817674
 H          1.6660130203       -0.4710948503       -1.0811165873
  13
  -14.7605114600000       0.499989418051651      !mtd2
 C          0.6600847981        1.0442940162       -0.0394423806
 C         -0.6607258192        1.0439190135       -0.0394099712
 C         -1.2248439423       -0.3394647203        0.0898112034
 C          0.0004013819       -1.2485179240       -0.1116575656
 C          1.2250652310       -0.3387734363        0.0898255675
 H          1.2987830648        1.9089252379       -0.0983329265
 H         -1.3000102762        1.9080925067       -0.0982703797
 H         -1.6644161241       -0.4701026640        1.0830233385
 H         -2.0092330015       -0.5335647462       -0.6433647223
 H          0.0004597982       -1.6426768188       -1.1283897206
 H          0.0005990015       -2.0932478521        0.5748779660
 H          1.6644271209       -0.4690357115        1.0832308041
 H          2.0096090966       -0.5324492994       -0.6432006297
