%nprocshared=12
%mem=16GB
# B3LYP/6-311+G(2d,p) scrf=(solvent=chloroform,smd) nmr=giao

Strychnine_rdkit_conf_2_SP

0 1
 C   0.45181900  -1.88428000   1.69968700
 C  -0.99762000  -2.38434400   1.72969400
 N  -1.34565700  -2.67258700   0.32337200
 C  -2.70732300  -2.23452800  -0.05519900
 C  -2.73032500  -0.74527600  -0.34347000
 C  -3.43409100   0.10658900   0.41584200
 C  -3.42978800   1.61423300   0.40269900
 O  -2.73036200   2.24830700  -0.65937100
 C  -1.30431500   2.17218400  -0.72173400
 C  -0.58559700   2.89936800   0.45112700
 C   0.89716900   2.53089300   0.52807500
 O   1.79912300   3.36205800   0.51868100
 N   1.11501100   1.16713700   0.58706200
 C  -0.04277900   0.26533900   0.38451900
 C  -0.74198100   0.73725500  -0.90344400
 C  -1.72571000  -0.32257900  -1.42142900
 C  -0.86077500  -1.53473700  -1.82650300
 C  -0.26062600  -2.15190800  -0.56135700
 C   0.56664200  -1.16857600   0.32725300
 C   2.00930800  -0.86956700  -0.03322000
 C   3.02398400  -1.72645200  -0.44850700
 C   4.32071800  -1.22236500  -0.62343200
 C   4.59156800   0.12517600  -0.36731600
 C   3.58597700   1.00262500   0.05825300
 C   2.29837700   0.48587700   0.21179300
 H   0.69650400  -1.22651800   2.53958600
 H   1.15528500  -2.72377900   1.72040800
 H  -1.11304500  -3.27946100   2.35259600
 H  -1.65881000  -1.60862500   2.14700500
 H  -3.38531100  -2.49037600   0.76375600
 H  -3.03747600  -2.81433900  -0.92547800
 H  -4.08956900  -0.30812800   1.18433400
 H  -4.45954000   1.98035200   0.30906700
 H  -3.07143200   1.97701200   1.38199700
 H  -1.09200200   2.73236400  -1.63664300
 H  -1.05774200   2.62528800   1.40241600
 H  -0.65815400   3.98230900   0.34543600
 H  -0.72224300   0.34938400   1.23604000
 H   0.05425700   0.82267600  -1.65570300
 H  -2.25842700   0.07051000  -2.29560500
 H  -0.06106700  -1.21909900  -2.50502600
 H  -1.44366800  -2.29035200  -2.36284100
 H   0.39865900  -2.98632100  -0.83752300
 H   2.81887400  -2.77739800  -0.63425500
 H   5.11708400  -1.88303100  -0.95254500
 H   5.60032400   0.50539300  -0.49999900
 H   3.78414200   2.04780300   0.25546300

