  18
        -22.05961603
 C         -0.8713245938       -0.2565353447       -1.1524062539
 C         -0.9557021207        1.0291368817       -0.7097218338
 C         -0.9554796540        1.0294033544        0.7095012185
 C         -0.8707872867       -0.2561017849        1.1526420437
 C         -1.1373843665       -1.1748108991        0.0003544350
 C          1.4106077467       -0.5232058862        0.6642747589
 C          1.4102772865       -0.5229478424       -0.6646553130
 C          1.9079880273        0.7148160494       -0.0000224364
 H         -0.9204174852       -0.5758922391       -2.1785618781
 H         -0.9296919755        1.9126014907       -1.3230522937
 H         -0.9292847626        1.9131892340        1.3224296323
 H         -0.9196281765       -0.5749060246        2.1789337457
 H         -0.5748729222       -2.1045986174        0.0003624895
 H         -2.2036731033       -1.4342871746        0.0006170341
 H          1.4837186501       -1.0782121906        1.5660893479
 H          1.4838026577       -1.0778858104       -1.5664652890
 H          2.9694957343        0.9466449179       -0.0003112129
 H          1.2770722568        1.5995973922        0.0003562213
  18
        -22.05285863
 C         -0.8413810618       -0.2149466333       -1.1513615696
 C         -1.2487466177        1.0116235112       -0.7065779306
 C         -1.2486784832        1.0118835236        0.7064980355
 C         -0.8412936022       -0.2145359966        1.1516555261
 C         -0.8853993045       -1.1632014827        0.0003229444
 C          1.4027365692        0.2808199473        0.6658502601
 C          1.4025446714        0.2811865568       -0.6658818728
 C          2.1437334658       -0.8337807501       -0.0004962398
 H         -0.7974553260       -0.5392190617       -2.1761318640
 H         -1.4309332473        1.8780757773       -1.3172659089
 H         -1.4309682515        1.8785127911        1.3169446411
 H         -0.7967700620       -0.5384019082        2.1765644900
 H         -0.1385022905       -1.9510448742        0.0004952684
 H         -1.8625731845       -1.6610390300        0.0004028126
 H          1.4328911875        0.8551312316        1.5583550598
 H          1.4320296017        0.8560742558       -1.5580106573
 H          1.7473922869       -1.8432319500       -0.0006063989
 H          3.2330167627       -0.8302175356       -0.0008565213
