18
 energy: -22.059616004610 gnorm: 0.000269286142 xtb: 6.3.3 (7355c4f)
C        -0.42538877047049   -1.11008278695798    1.05306349688513
C         0.91552647982517   -0.88856883561117    0.95850149862104
C         1.15172107664989    0.51073289189016    0.93817542252047
C        -0.04176753251729    1.16260712959150    1.02006121588999
C        -1.14066806495731    0.17554942350527    0.77306551710901
C        -0.37432575243774    0.75690827681809    3.30902549296645
C        -0.59554006250630   -0.55329923934281    3.32805240900244
C         0.73805944776810   -0.09751774851477    3.81258433031154
H        -0.91111587537572   -2.06945319984727    1.01988553895124
H         1.68484602186112   -1.63987620158724    0.99093659113310
H         2.12513694961700    0.96856293077509    0.95306311808455
H        -0.18590785682482    2.22690699787593    0.95750965313977
H        -2.05464693761167    0.33802691628513    1.33800162914083
H        -1.40209598652204    0.20420623108568   -0.29239820260606
H        -0.77106189948699    1.73939107905425    3.37141149298602
H        -1.29248925344613   -1.34893943656583    3.41623250822360
H         0.97225037775967   -0.12165144869626    4.87341258526708
H         1.60746763867331   -0.25350097973696    3.17941770236804
