18
 energy: -22.041741853284 gnorm: 0.000972328626 xtb: 6.3.3 (7355c4f)
C        -0.40632157055329   -1.10809916528511    1.04813006875878
C         0.91089548178943   -0.90170329243865    0.95738643978332
C         1.15118411954533    0.52547127475408    0.93635315928207
C        -0.02461955949414    1.15446693476991    1.01432561339940
C        -1.11936183944077    0.17178141503650    0.77123548421637
C        -0.34570502857961    0.79279286178453    3.31002934379814
C        -0.58218503839666   -0.59543390286678    3.33073622372163
C         0.68110779704802   -0.08822651161797    3.77631036161659
H        -0.90539492489737   -2.06963368354000    1.01803164579015
H         1.69177504303030   -1.64674136392239    0.98975014508753
H         2.13394495204771    0.97406252085673    0.95065167831217
H        -0.18156499786926    2.22438283968001    0.95441654614726
H        -2.04486923742080    0.33662535014307    1.34993066421176
H        -1.39848274582224    0.20282445716260   -0.29658266105415
H        -0.78839437074776    1.76738444752327    3.42856620840314
H        -1.32048855621655   -1.36782080137421    3.47029025722698
H         0.97027454637423   -0.12164069640765    4.84693528480302
H         1.57820592960110   -0.25049068423715    3.14350553649014
