18
-22.05961603
C         -0.87132       -0.25654       -1.15241
C         -0.95570        1.02914       -0.70972
C         -0.95548        1.02940        0.70950
C         -0.87079       -0.25610        1.15264
C         -1.13738       -1.17481        0.00035
C          1.41061       -0.52321        0.66427
C          1.41028       -0.52295       -0.66466
C          1.90799        0.71482       -0.00002
H         -0.92042       -0.57589       -2.17856
H         -0.92969        1.91260       -1.32305
H         -0.92928        1.91319        1.32243
H         -0.91963       -0.57491        2.17893
H         -0.57487       -2.10460        0.00036
H         -2.20367       -1.43429        0.00062
H          1.48372       -1.07821        1.56609
H          1.48380       -1.07789       -1.56647
H          2.96950        0.94664       -0.00031
H          1.27707        1.59960        0.00036
